
Version,
  9.1;                                    !- Version Identifier

Timestep,
  4;                                      !- Number of Timesteps per Hour

LifeCycleCost:Parameters,
  Life Cycle Cost Parameters,             !- Name
  EndOfYear,                              !- Discounting Convention
  ConstantDollar,                         !- Inflation Approach
  0.03,                                   !- Real Discount Rate
  ,                                       !- Nominal Discount Rate
  ,                                       !- Inflation
  ,                                       !- Base Date Month
  2011,                                   !- Base Date Year
  ,                                       !- Service Date Month
  2011,                                   !- Service Date Year
  25,                                     !- Length of Study Period in Years
  ,                                       !- Tax rate
  None;                                   !- Depreciation Method

LifeCycleCost:UsePriceEscalation,
  U.S. Avg  Commercial-Electricity,       !- LCC Price Escalation Name
  Electricity,                            !- Resource
  2011,                                   !- Escalation Start Year
  January,                                !- Escalation Start Month
  0.9838,                                 !- Year Escalation 1
  0.9730,                                 !- Year Escalation 2
  0.9632,                                 !- Year Escalation 3
  0.9611,                                 !- Year Escalation 4
  0.9571,                                 !- Year Escalation 5
  0.9553,                                 !- Year Escalation 6
  0.9539,                                 !- Year Escalation 7
  0.9521,                                 !- Year Escalation 8
  0.9546,                                 !- Year Escalation 9
  0.9550,                                 !- Year Escalation 10
  0.9553,                                 !- Year Escalation 11
  0.9564,                                 !- Year Escalation 12
  0.9575,                                 !- Year Escalation 13
  0.9596,                                 !- Year Escalation 14
  0.9618,                                 !- Year Escalation 15
  0.9614,                                 !- Year Escalation 16
  0.9618,                                 !- Year Escalation 17
  0.9618,                                 !- Year Escalation 18
  0.9593,                                 !- Year Escalation 19
  0.9589,                                 !- Year Escalation 20
  0.9607,                                 !- Year Escalation 21
  0.9625,                                 !- Year Escalation 22
  0.9650,                                 !- Year Escalation 23
  0.9708,                                 !- Year Escalation 24
  0.9751,                                 !- Year Escalation 25
  0.9762,                                 !- Year Escalation 26
  0.9766,                                 !- Year Escalation 27
  0.9766,                                 !- Year Escalation 28
  0.9769,                                 !- Year Escalation 29
  0.9773;                                 !- Year Escalation 30

LifeCycleCost:UsePriceEscalation,
  U.S. Avg  Commercial-Distillate Oil,    !- LCC Price Escalation Name
  FuelOil#1,                              !- Resource
  2011,                                   !- Escalation Start Year
  January,                                !- Escalation Start Month
  0.9714,                                 !- Year Escalation 1
  0.9730,                                 !- Year Escalation 2
  0.9942,                                 !- Year Escalation 3
  1.0164,                                 !- Year Escalation 4
  1.0541,                                 !- Year Escalation 5
  1.0928,                                 !- Year Escalation 6
  1.1267,                                 !- Year Escalation 7
  1.1580,                                 !- Year Escalation 8
  1.1792,                                 !- Year Escalation 9
  1.1967,                                 !- Year Escalation 10
  1.2200,                                 !- Year Escalation 11
  1.2333,                                 !- Year Escalation 12
  1.2566,                                 !- Year Escalation 13
  1.2709,                                 !- Year Escalation 14
  1.2826,                                 !- Year Escalation 15
  1.2985,                                 !- Year Escalation 16
  1.3102,                                 !- Year Escalation 17
  1.3250,                                 !- Year Escalation 18
  1.3261,                                 !- Year Escalation 19
  1.3282,                                 !- Year Escalation 20
  1.3324,                                 !- Year Escalation 21
  1.3356,                                 !- Year Escalation 22
  1.3431,                                 !- Year Escalation 23
  1.3510,                                 !- Year Escalation 24
  1.3568,                                 !- Year Escalation 25
  1.3606,                                 !- Year Escalation 26
  1.3637,                                 !- Year Escalation 27
  1.3674,                                 !- Year Escalation 28
  1.3706,                                 !- Year Escalation 29
  1.3743;                                 !- Year Escalation 30

LifeCycleCost:UsePriceEscalation,
  U.S. Avg  Commercial-Residual Oil,      !- LCC Price Escalation Name
  FuelOil#2,                              !- Resource
  2011,                                   !- Escalation Start Year
  January,                                !- Escalation Start Month
  0.8469,                                 !- Year Escalation 1
  0.8257,                                 !- Year Escalation 2
  0.8681,                                 !- Year Escalation 3
  0.8988,                                 !- Year Escalation 4
  0.9289,                                 !- Year Escalation 5
  0.9604,                                 !- Year Escalation 6
  0.9897,                                 !- Year Escalation 7
  1.0075,                                 !- Year Escalation 8
  1.0314,                                 !- Year Escalation 9
  1.0554,                                 !- Year Escalation 10
  1.0861,                                 !- Year Escalation 11
  1.1278,                                 !- Year Escalation 12
  1.1497,                                 !- Year Escalation 13
  1.1620,                                 !- Year Escalation 14
  1.1743,                                 !- Year Escalation 15
  1.1852,                                 !- Year Escalation 16
  1.1948,                                 !- Year Escalation 17
  1.2037,                                 !- Year Escalation 18
  1.2071,                                 !- Year Escalation 19
  1.2119,                                 !- Year Escalation 20
  1.2139,                                 !- Year Escalation 21
  1.2194,                                 !- Year Escalation 22
  1.2276,                                 !- Year Escalation 23
  1.2365,                                 !- Year Escalation 24
  1.2420,                                 !- Year Escalation 25
  1.2461,                                 !- Year Escalation 26
  1.2509,                                 !- Year Escalation 27
  1.2550,                                 !- Year Escalation 28
  1.2591,                                 !- Year Escalation 29
  1.2638;                                 !- Year Escalation 30

LifeCycleCost:UsePriceEscalation,
  U.S. Avg  Commercial-Natural gas,       !- LCC Price Escalation Name
  NaturalGas,                             !- Resource
  2011,                                   !- Escalation Start Year
  January,                                !- Escalation Start Month
  0.9823,                                 !- Year Escalation 1
  0.9557,                                 !- Year Escalation 2
  0.9279,                                 !- Year Escalation 3
  0.9257,                                 !- Year Escalation 4
  0.9346,                                 !- Year Escalation 5
  0.9412,                                 !- Year Escalation 6
  0.9512,                                 !- Year Escalation 7
  0.9645,                                 !- Year Escalation 8
  0.9856,                                 !- Year Escalation 9
  1.0067,                                 !- Year Escalation 10
  1.0222,                                 !- Year Escalation 11
  1.0410,                                 !- Year Escalation 12
  1.0610,                                 !- Year Escalation 13
  1.0787,                                 !- Year Escalation 14
  1.0942,                                 !- Year Escalation 15
  1.1098,                                 !- Year Escalation 16
  1.1220,                                 !- Year Escalation 17
  1.1308,                                 !- Year Escalation 18
  1.1386,                                 !- Year Escalation 19
  1.1486,                                 !- Year Escalation 20
  1.1619,                                 !- Year Escalation 21
  1.1763,                                 !- Year Escalation 22
  1.1918,                                 !- Year Escalation 23
  1.2118,                                 !- Year Escalation 24
  1.2284,                                 !- Year Escalation 25
  1.2439,                                 !- Year Escalation 26
  1.2605,                                 !- Year Escalation 27
  1.2772,                                 !- Year Escalation 28
  1.2938,                                 !- Year Escalation 29
  1.3115;                                 !- Year Escalation 30

LifeCycleCost:UsePriceEscalation,
  U.S. Avg  Commercial-Coal,              !- LCC Price Escalation Name
  Coal,                                   !- Resource
  2011,                                   !- Escalation Start Year
  January,                                !- Escalation Start Month
  0.9970,                                 !- Year Escalation 1
  1.0089,                                 !- Year Escalation 2
  1.0089,                                 !- Year Escalation 3
  0.9941,                                 !- Year Escalation 4
  0.9941,                                 !- Year Escalation 5
  1.0000,                                 !- Year Escalation 6
  1.0030,                                 !- Year Escalation 7
  1.0059,                                 !- Year Escalation 8
  1.0089,                                 !- Year Escalation 9
  1.0119,                                 !- Year Escalation 10
  1.0148,                                 !- Year Escalation 11
  1.0178,                                 !- Year Escalation 12
  1.0208,                                 !- Year Escalation 13
  1.0267,                                 !- Year Escalation 14
  1.0297,                                 !- Year Escalation 15
  1.0356,                                 !- Year Escalation 16
  1.0415,                                 !- Year Escalation 17
  1.0534,                                 !- Year Escalation 18
  1.0564,                                 !- Year Escalation 19
  1.0593,                                 !- Year Escalation 20
  1.0653,                                 !- Year Escalation 21
  1.0712,                                 !- Year Escalation 22
  1.0742,                                 !- Year Escalation 23
  1.0801,                                 !- Year Escalation 24
  1.0831,                                 !- Year Escalation 25
  1.0831,                                 !- Year Escalation 26
  1.0861,                                 !- Year Escalation 27
  1.0890,                                 !- Year Escalation 28
  1.0920,                                 !- Year Escalation 29
  1.0950;                                 !- Year Escalation 30

Building,
  aim0013,                                !- Name
  ,                                       !- North Axis {deg}
  ,                                       !- Terrain
  0.1,                                    !- Loads Convergence Tolerance Value
  0.5,                                    !- Temperature Convergence Tolerance Value {deltaC}
  FullExterior,                           !- Solar Distribution
  25,                                     !- Maximum Number of Warmup Days
  6;                                      !- Minimum Number of Warmup Days

Zone,
  PTAC-1,                                 !- Name
  ,                                       !- Direction of Relative North {deg}
  0,                                      !- X Origin {m}
  0,                                      !- Y Origin {m}
  0,                                      !- Z Origin {m}
  ,                                       !- Type
  ,                                       !- Multiplier
  ,                                       !- Ceiling Height {m}
  141.621165099564,                       !- Volume {m3}
  ,                                       !- Floor Area {m2}
  ,                                       !- Zone Inside Convection Algorithm
  ,                                       !- Zone Outside Convection Algorithm
  Yes;                                    !- Part of Total Floor Area

BuildingSurface:Detailed,
  aim0148,                                !- Name
  Wall,                                   !- Surface Type
  R-0 metal frame wall,                   !- Construction Name
  PTAC-1,                                 !- Zone Name
  Outdoors,                               !- Outside Boundary Condition
  ,                                       !- Outside Boundary Condition Object
  SunExposed,                             !- Sun Exposure
  WindExposed,                            !- Wind Exposure
  ,                                       !- View Factor to Ground
  ,                                       !- Number of Vertices
  -2.05566638904, -2.37480402864, 0,      !- X,Y,Z Vertex 1 {m}
  -2.05566638904, -2.37480402864, 4.15240003656, !- X,Y,Z Vertex 2 {m}
  -2.05566638904, 4.72519589376, 4.15240003656, !- X,Y,Z Vertex 3 {m}
  -2.05566638904, 4.72519589376, 0;       !- X,Y,Z Vertex 4 {m}

FenestrationSurface:Detailed,
  aim0171,                                !- Name
  Window,                                 !- Surface Type
  Pilkington RW33 double glazing (1/4 in + 1/4 in), !- Construction Name
  aim0148,                                !- Building Surface Name
  ,                                       !- Outside Boundary Condition Object
  ,                                       !- View Factor to Ground
  ,                                       !- Frame and Divider Name
  ,                                       !- Multiplier
  ,                                       !- Number of Vertices
  -2.05566638904, 2.62405354231916, 0.918057675679159, !- X,Y,Z Vertex 1 {m}
  -2.05566638904, 2.62405354231916, 1.82514232432084, !- X,Y,Z Vertex 2 {m}
  -2.05566638904, 3.22633819096084, 1.82514232432084, !- X,Y,Z Vertex 3 {m}
  -2.05566638904, 3.22633819096084, 0.918057675679159; !- X,Y,Z Vertex 4 {m}

FenestrationSurface:Detailed,
  aim0207,                                !- Name
  Window,                                 !- Surface Type
  Pilkington RW33 double glazing (1/4 in + 1/4 in), !- Construction Name
  aim0148,                                !- Building Surface Name
  ,                                       !- Outside Boundary Condition Object
  ,                                       !- View Factor to Ground
  ,                                       !- Frame and Divider Name
  ,                                       !- Multiplier
  ,                                       !- Number of Vertices
  -2.05566638904, -0.725946351411082, 0.918057675788918, !- X,Y,Z Vertex 1 {m}
  -2.05566638904, -0.725946351411082, 1.82514232421108, !- X,Y,Z Vertex 2 {m}
  -2.05566638904, -0.123661672508918, 1.82514232421108, !- X,Y,Z Vertex 3 {m}
  -2.05566638904, -0.123661672508918, 0.918057675788918; !- X,Y,Z Vertex 4 {m}

FenestrationSurface:Detailed,
  aim0243,                                !- Name
  Window,                                 !- Surface Type
  Pilkington RW33 double glazing (1/4 in + 1/4 in), !- Construction Name
  aim0148,                                !- Building Surface Name
  ,                                       !- Outside Boundary Condition Object
  ,                                       !- View Factor to Ground
  ,                                       !- Frame and Divider Name
  ,                                       !- Multiplier
  ,                                       !- Number of Vertices
  -2.05566638904, 1.22405368039918, 0.918057675679176, !- X,Y,Z Vertex 1 {m}
  -2.05566638904, 1.22405368039918, 1.82514232432082, !- X,Y,Z Vertex 2 {m}
  -2.05566638904, 1.82633832904082, 1.82514232432082, !- X,Y,Z Vertex 3 {m}
  -2.05566638904, 1.82633832904082, 0.918057675679176; !- X,Y,Z Vertex 4 {m}

BuildingSurface:Detailed,
  aim0307,                                !- Name
  Wall,                                   !- Surface Type
  R-0 metal frame wall,                   !- Construction Name
  PTAC-1,                                 !- Zone Name
  Outdoors,                               !- Outside Boundary Condition
  ,                                       !- Outside Boundary Condition Object
  SunExposed,                             !- Sun Exposure
  WindExposed,                            !- Wind Exposure
  ,                                       !- View Factor to Ground
  ,                                       !- Number of Vertices
  0.84433358184, -2.37480399816, 0,       !- X,Y,Z Vertex 1 {m}
  3.84433355592, -2.37480399816, 0,       !- X,Y,Z Vertex 2 {m}
  3.84433355592, -2.37480399816, 4.15240000608, !- X,Y,Z Vertex 3 {m}
  0.84433358184, -2.37480399816, 4.15240000608; !- X,Y,Z Vertex 4 {m}

BuildingSurface:Detailed,
  aim0344,                                !- Name
  Wall,                                   !- Surface Type
  R-0 metal frame wall,                   !- Construction Name
  PTAC-1,                                 !- Zone Name
  Outdoors,                               !- Outside Boundary Condition
  ,                                       !- Outside Boundary Condition Object
  SunExposed,                             !- Sun Exposure
  WindExposed,                            !- Wind Exposure
  ,                                       !- View Factor to Ground
  ,                                       !- Number of Vertices
  -2.05566641952, -2.37480399816, 0,      !- X,Y,Z Vertex 1 {m}
  0.84433358184, -2.37480399816, 0,       !- X,Y,Z Vertex 2 {m}
  0.84433358184, -2.37480399816, 4.15240000608, !- X,Y,Z Vertex 3 {m}
  -2.05566641952, -2.37480399816, 4.15240000608; !- X,Y,Z Vertex 4 {m}

BuildingSurface:Detailed,
  aim0381,                                !- Name
  Wall,                                   !- Surface Type
  R-0 metal frame wall,                   !- Construction Name
  PTAC-1,                                 !- Zone Name
  Outdoors,                               !- Outside Boundary Condition
  ,                                       !- Outside Boundary Condition Object
  SunExposed,                             !- Sun Exposure
  WindExposed,                            !- Wind Exposure
  ,                                       !- View Factor to Ground
  ,                                       !- Number of Vertices
  3.84433364736, -2.37480402864, 0,       !- X,Y,Z Vertex 1 {m}
  3.84433364736, 4.72519589376, 0,        !- X,Y,Z Vertex 2 {m}
  3.84433364736, 4.72519589376, 4.15240003656, !- X,Y,Z Vertex 3 {m}
  3.84433364736, -2.37480402864, 4.15240003656; !- X,Y,Z Vertex 4 {m}

FenestrationSurface:Detailed,
  aim0404,                                !- Name
  Window,                                 !- Surface Type
  Pilkington RW33 double glazing (1/4 in + 1/4 in), !- Construction Name
  aim0381,                                !- Building Surface Name
  ,                                       !- Outside Boundary Condition Object
  ,                                       !- View Factor to Ground
  ,                                       !- Frame and Divider Name
  ,                                       !- Multiplier
  ,                                       !- Number of Vertices
  3.84433364736, -1.22594633704082, 0.918057675679176, !- X,Y,Z Vertex 1 {m}
  3.84433364736, -0.623661688399176, 0.918057675679176, !- X,Y,Z Vertex 2 {m}
  3.84433364736, -0.623661688399176, 1.82514232432082, !- X,Y,Z Vertex 3 {m}
  3.84433364736, -1.22594633704082, 1.82514232432082; !- X,Y,Z Vertex 4 {m}

FenestrationSurface:Detailed,
  aim0440,                                !- Name
  Window,                                 !- Surface Type
  Pilkington RW33 double glazing (1/4 in + 1/4 in), !- Construction Name
  aim0381,                                !- Building Surface Name
  ,                                       !- Outside Boundary Condition Object
  ,                                       !- View Factor to Ground
  ,                                       !- Frame and Divider Name
  ,                                       !- Multiplier
  ,                                       !- Number of Vertices
  3.84433364736, 3.12405355831916, 0.918057675679159, !- X,Y,Z Vertex 1 {m}
  3.84433364736, 3.72633820696084, 0.918057675679159, !- X,Y,Z Vertex 2 {m}
  3.84433364736, 3.72633820696084, 1.82514232432084, !- X,Y,Z Vertex 3 {m}
  3.84433364736, 3.12405355831916, 1.82514232432084; !- X,Y,Z Vertex 4 {m}

FenestrationSurface:Detailed,
  aim0476,                                !- Name
  Window,                                 !- Surface Type
  Pilkington RW33 double glazing (1/4 in + 1/4 in), !- Construction Name
  aim0381,                                !- Building Surface Name
  ,                                       !- Outside Boundary Condition Object
  ,                                       !- View Factor to Ground
  ,                                       !- Frame and Divider Name
  ,                                       !- Multiplier
  ,                                       !- Number of Vertices
  3.84433364736, 1.82405366911918, 0.918057675679176, !- X,Y,Z Vertex 1 {m}
  3.84433364736, 2.42633831776082, 0.918057675679176, !- X,Y,Z Vertex 2 {m}
  3.84433364736, 2.42633831776082, 1.82514232432082, !- X,Y,Z Vertex 3 {m}
  3.84433364736, 1.82405366911918, 1.82514232432082; !- X,Y,Z Vertex 4 {m}

FenestrationSurface:Detailed,
  aim0512,                                !- Name
  Window,                                 !- Surface Type
  Pilkington RW33 double glazing (1/4 in + 1/4 in), !- Construction Name
  aim0381,                                !- Building Surface Name
  ,                                       !- Outside Boundary Condition Object
  ,                                       !- View Factor to Ground
  ,                                       !- Frame and Divider Name
  ,                                       !- Multiplier
  ,                                       !- Number of Vertices
  3.84433364736, 0.224053678879167, 0.918057675679167, !- X,Y,Z Vertex 1 {m}
  3.84433364736, 0.826338327520833, 0.918057675679167, !- X,Y,Z Vertex 2 {m}
  3.84433364736, 0.826338327520833, 1.82514232432083, !- X,Y,Z Vertex 3 {m}
  3.84433364736, 0.224053678879167, 1.82514232432083; !- X,Y,Z Vertex 4 {m}

BuildingSurface:Detailed,
  aim0562,                                !- Name
  Wall,                                   !- Surface Type
  R-0 metal frame wall,                   !- Construction Name
  PTAC-1,                                 !- Zone Name
  Outdoors,                               !- Outside Boundary Condition
  ,                                       !- Outside Boundary Condition Object
  SunExposed,                             !- Sun Exposure
  WindExposed,                            !- Wind Exposure
  ,                                       !- View Factor to Ground
  ,                                       !- Number of Vertices
  -1.95566641632, 4.72519601568, 0,       !- X,Y,Z Vertex 1 {m}
  -1.95566641632, 4.72519601568, 4.15240000608, !- X,Y,Z Vertex 2 {m}
  0.84433358184, 4.72519601568, 4.15240000608, !- X,Y,Z Vertex 3 {m}
  0.84433358184, 4.72519601568, 0;        !- X,Y,Z Vertex 4 {m}

BuildingSurface:Detailed,
  aim0599,                                !- Name
  Wall,                                   !- Surface Type
  R-0 metal frame wall,                   !- Construction Name
  PTAC-1,                                 !- Zone Name
  Outdoors,                               !- Outside Boundary Condition
  ,                                       !- Outside Boundary Condition Object
  SunExposed,                             !- Sun Exposure
  WindExposed,                            !- Wind Exposure
  ,                                       !- View Factor to Ground
  ,                                       !- Number of Vertices
  0.84433358184, 4.72519601568, 0,        !- X,Y,Z Vertex 1 {m}
  0.84433358184, 4.72519601568, 4.15240000608, !- X,Y,Z Vertex 2 {m}
  3.84433355592, 4.72519601568, 4.15240000608, !- X,Y,Z Vertex 3 {m}
  3.84433355592, 4.72519601568, 0;        !- X,Y,Z Vertex 4 {m}

BuildingSurface:Detailed,
  aim0636,                                !- Name
  Floor,                                  !- Surface Type
  Slab edge uninsulated,                  !- Construction Name
  PTAC-1,                                 !- Zone Name
  Ground,                                 !- Outside Boundary Condition
  ,                                       !- Outside Boundary Condition Object
  NoSun,                                  !- Sun Exposure
  NoWind,                                 !- Wind Exposure
  ,                                       !- View Factor to Ground
  ,                                       !- Number of Vertices
  0.84433358184, -2.37480399816, 0,       !- X,Y,Z Vertex 1 {m}
  0.84433358184, 4.72519601568, 0,        !- X,Y,Z Vertex 2 {m}
  3.7443335832, 4.72519601568, 0,         !- X,Y,Z Vertex 3 {m}
  3.7443335832, -2.37480399816, 0;        !- X,Y,Z Vertex 4 {m}

BuildingSurface:Detailed,
  aim0673,                                !- Name
  Floor,                                  !- Surface Type
  Slab edge uninsulated,                  !- Construction Name
  PTAC-1,                                 !- Zone Name
  Ground,                                 !- Outside Boundary Condition
  ,                                       !- Outside Boundary Condition Object
  NoSun,                                  !- Sun Exposure
  NoWind,                                 !- Wind Exposure
  ,                                       !- View Factor to Ground
  ,                                       !- Number of Vertices
  -2.05566641952, -2.37480399816, 0,      !- X,Y,Z Vertex 1 {m}
  -2.05566641952, 4.72519601568, 0,       !- X,Y,Z Vertex 2 {m}
  0.84433358184, 4.72519601568, 0,        !- X,Y,Z Vertex 3 {m}
  0.84433358184, -2.37480399816, 0;       !- X,Y,Z Vertex 4 {m}

BuildingSurface:Detailed,
  aim0710,                                !- Name
  Roof,                                   !- Surface Type
  R-20 over roof deck - cool roof,        !- Construction Name
  PTAC-1,                                 !- Zone Name
  Outdoors,                               !- Outside Boundary Condition
  ,                                       !- Outside Boundary Condition Object
  SunExposed,                             !- Sun Exposure
  WindExposed,                            !- Wind Exposure
  ,                                       !- View Factor to Ground
  ,                                       !- Number of Vertices
  -2.05566641952, -2.37480399816, 4.15240000608, !- X,Y,Z Vertex 1 {m}
  0.84433358184, -2.37480399816, 4.15240000608, !- X,Y,Z Vertex 2 {m}
  0.84433358184, 4.72519601568, 4.15240000608, !- X,Y,Z Vertex 3 {m}
  -2.05566641952, 4.72519601568, 4.15240000608; !- X,Y,Z Vertex 4 {m}

BuildingSurface:Detailed,
  aim0747,                                !- Name
  Roof,                                   !- Surface Type
  R-20 over roof deck - cool roof,        !- Construction Name
  PTAC-1,                                 !- Zone Name
  Outdoors,                               !- Outside Boundary Condition
  ,                                       !- Outside Boundary Condition Object
  SunExposed,                             !- Sun Exposure
  WindExposed,                            !- Wind Exposure
  ,                                       !- View Factor to Ground
  ,                                       !- Number of Vertices
  0.84433358184, -2.37480399816, 4.15240000608, !- X,Y,Z Vertex 1 {m}
  3.84433355592, -2.37480399816, 4.15240000608, !- X,Y,Z Vertex 2 {m}
  3.84433355592, 4.72519601568, 4.15240000608, !- X,Y,Z Vertex 3 {m}
  0.84433358184, 4.72519601568, 4.15240000608; !- X,Y,Z Vertex 4 {m}

InternalMass,
  Merged aim0784 - aim0784 Reversed,      !- Name
  R-0 metal frame wall,                   !- Construction Name
  PTAC-1,                                 !- Zone Name
  29.4820401006372;                       !- Surface Area {m2}

People,
  Space 1_people,                         !- Name
  PTAC-1,                                 !- Zone or ZoneList Name
  Common Office Occupancy - 8 AM to 5 PM, !- Number of People Schedule Name
  People,                                 !- Number of People Calculation Method
  1,                                      !- Number of People
  ,                                       !- People per Zone Floor Area {person/m2}
  ,                                       !- Zone Floor Area per Person {m2/person}
  0.3,                                    !- Fraction Radiant
  0.555555555555556,                      !- Sensible Heat Fraction