
OS:Version,
  {969906e5-d344-4592-a943-382149489e9f}, !- Handle
  2.8.1;                                  !- Version Identifier

OS:Material,
  {a911955f-36ba-4952-ac1c-bda9a479abbd}, !- Handle
  Wood shingle  (WS01),                   !- Name
  MediumRough,                            !- Roughness
  0.017769,                               !- Thickness {m}
  0.11544,                                !- Conductivity {W/m-K}
  512.64,                                 !- Density {kg/m3}
  1256.04,                                !- Specific Heat {J/kg-K}
  ,                                       !- Thermal Absorptance
  0.7;                                    !- Solar Absorptance

OS:Material:NoMass,
  {cb567010-938f-463b-b3b8-1f5886d8872a}, !- Handle
  Bldg paper felt  (BP01),                !- Name
  Smooth,                                 !- Roughness
  0.01057;                                !- Thermal Resistance {m2-K/W}

OS:Material,
  {895b88f1-64f6-4487-a89b-0635da6d1da0}, !- Handle
  Wood Sft 3/4 in  (WD01),                !- Name
  MediumRough,                            !- Roughness
  0.019049,                               !- Thickness {m}
  0.11544,                                !- Conductivity {W/m-K}
  512.64,                                 !- Density {kg/m3}
  1381.644;                               !- Specific Heat {J/kg-K}

OS:Material:NoMass,
  {035452d7-b69f-4458-9320-868ff4b99077}, !- Handle
  Minwool batt R13 w/ 2x4 frame,          !- Name
  Smooth,                                 !- Roughness
  1.6255;                                 !- Thermal Resistance {m2-K/W}

OS:Material,
  {d4e6f359-5f0b-4c11-b9ad-b491cf126941}, !- Handle
  GypBd 5/8 in  (GP02),                   !- Name
  MediumRough,                            !- Roughness
  0.015879,                               !- Thickness {m}
  0.160266,                               !- Conductivity {W/m-K}
  801,                                    !- Density {kg/m3}
  837.36,                                 !- Specific Heat {J/kg-K}
  ,                                       !- Thermal Absorptance
  0.7;                                    !- Solar Absorptance

OS:Material:NoMass,
  {b8bfca65-97da-48a0-b138-80b6ee6dfb50}, !- Handle
  Air space,                              !- Name
  Smooth,                                 !- Roughness
  0.10919;                                !- Thermal Resistance {m2-K/W}

OS:Material,
  {99925257-ec61-40da-8f7e-976c911fc687}, !- Handle
  Blt-Up roof 3/8 in  (BR01),             !- Name
  MediumRough,                            !- Roughness
  0.00954,                                !- Thickness {m}
  0.162516,                               !- Conductivity {W/m-K}
  1121.4,                                 !- Density {kg/m3}
  1465.38,                                !- Specific Heat {J/kg-K}
  ,                                       !- Thermal Absorptance
  0.3;                                    !- Solar Absorptance

OS:Material,
  {5628cd63-382d-4210-bd7e-12dddece46df}, !- Handle
  MinBd 3 in R-10.4  (IN24),              !- Name
  MediumRough,                            !- Roughness
  0.076196,                               !- Thickness {m}
  0.041538,                               !- Conductivity {W/m-K}
  240.3,                                  !- Density {kg/m3}
  711.756;                                !- Specific Heat {J/kg-K}

OS:Material:NoMass,
  {7e1999a5-1215-41d5-95b8-7544a089a08d}, !- Handle
  UG surface fictitious insulation,       !- Name
  Smooth,                                 !- Roughness
  5.28331;                                !- Thermal Resistance {m2-K/W}

OS:Material,
  {247b5044-0a2c-4720-8cb0-f069952451b6}, !- Handle
  Soil 8 in,                              !- Name
  MediumRough,                            !- Roughness
  0.204206,                               !- Thickness {m}
  1.730735,                               !- Conductivity {W/m-K}
  1842.3,                                 !- Density {kg/m3}
  837.36;                                 !- Specific Heat {J/kg-K}

OS:Material,
  {e8ea2188-c722-48c8-ba28-083931539220}, !- Handle
  Conc heavyweight 140lb 8 in  (CC05),    !- Name
  MediumRough,                            !- Roughness
  0.2032,                                 !- Thickness {m}
  1.311205,                               !- Conductivity {W/m-K}
  2242.8,                                 !- Density {kg/m3}
  837.36;                                 !- Specific Heat {J/kg-K}

OS:Material:NoMass,
  {52c8b579-775f-4fc1-9e64-81f657b182b6}, !- Handle
  Carpet fiber pad  (CP01),               !- Name
  Smooth,                                 !- Roughness
  0.36631;                                !- Thermal Resistance {m2-K/W}

OS:Construction,
  {ecc17f62-2c73-4640-97d5-a2737f27a7d7}, !- Handle
  R-13 wood frame wall,                   !- Name
  ,                                       !- Surface Rendering Name
  {a911955f-36ba-4952-ac1c-bda9a479abbd}, !- Layer 1
  {cb567010-938f-463b-b3b8-1f5886d8872a}, !- Layer 2
  {895b88f1-64f6-4487-a89b-0635da6d1da0}, !- Layer 3
  {035452d7-b69f-4458-9320-868ff4b99077}, !- Layer 4
  {d4e6f359-5f0b-4c11-b9ad-b491cf126941}; !- Layer 5

OS:Construction,
  {2afe952d-086d-49ca-851d-2f9a6af056e3}, !- Handle
  R-0 metal frame wall,                   !- Name
  ,                                       !- Surface Rendering Name
  {d4e6f359-5f0b-4c11-b9ad-b491cf126941}, !- Layer 1
  {b8bfca65-97da-48a0-b138-80b6ee6dfb50}, !- Layer 2
  {d4e6f359-5f0b-4c11-b9ad-b491cf126941}; !- Layer 3

OS:Construction,
  {1c6137e0-deb5-41ae-9d70-970ea22bf61d}, !- Handle
  R-20 over roof deck - cool roof,        !- Name
  ,                                       !- Surface Rendering Name
  {99925257-ec61-40da-8f7e-976c911fc687}, !- Layer 1
  {cb567010-938f-463b-b3b8-1f5886d8872a}, !- Layer 2
  {5628cd63-382d-4210-bd7e-12dddece46df}, !- Layer 3
  {5628cd63-382d-4210-bd7e-12dddece46df}, !- Layer 4
  {895b88f1-64f6-4487-a89b-0635da6d1da0}; !- Layer 5

OS:Construction,
  {c06e783f-1444-4c4e-88e4-f4592a6286e9}, !- Handle
  Slab edge uninsulated,                  !- Name
  ,                                       !- Surface Rendering Name
  {7e1999a5-1215-41d5-95b8-7544a089a08d}, !- Layer 1
  {247b5044-0a2c-4720-8cb0-f069952451b6}, !- Layer 2
  {e8ea2188-c722-48c8-ba28-083931539220}, !- Layer 3
  {52c8b579-775f-4fc1-9e64-81f657b182b6}; !- Layer 4

OS:ScheduleTypeLimits,
  {a1ab0a5e-570d-45cd-8a84-e5c8791e2995}, !- Handle
  Fraction,                               !- Name
  ,                                       !- Lower Limit Value
  ,                                       !- Upper Limit Value
  ,                                       !- Numeric Type
  Dimensionless;                          !- Unit Type

OS:YearDescription,
  {7d70a3c3-cd9e-4e2e-b652-bb139fc9c0fa}, !- Handle
  1997,                                   !- Calendar Year
  ,                                       !- Day of Week for Start Day
  ;                                       !- Is Leap Year

OS:ThermalZone,
  {017d7f89-e2d1-4add-8c98-f1199fb4ee1c}, !- Handle
  VAV Box Hot Water-1,                    !- Name
  ,                                       !- Multiplier
  ,                                       !- Ceiling Height {m}
  536.058577284572,                       !- Volume {m3}
  ,                                       !- Floor Area {m2}
  ,                                       !- Zone Inside Convection Algorithm
  ,                                       !- Zone Outside Convection Algorithm
  ,                                       !- Zone Conditioning Equipment List Name
  {b8af3ce5-d3bc-4e27-9e56-30674f2a7b40}, !- Zone Air Inlet Port List
  {85887c88-054f-41cf-b7ba-863bd761dd58}, !- Zone Air Exhaust Port List
  {708e521c-ed4f-43eb-90fa-6153220de37e}, !- Zone Air Node Name
  {53bde444-fdb1-477d-ad9c-c1b71408ccc8}, !- Zone Return Air Port List
  ,                                       !- Primary Daylighting Control Name
  ,                                       !- Fraction of Zone Controlled by Primary Daylighting Control
  ,                                       !- Secondary Daylighting Control Name
  ,                                       !- Fraction of Zone Controlled by Secondary Daylighting Control
  ,                                       !- Illuminance Map Name
  ,                                       !- Group Rendering Name
  {a80e98dc-2c3c-4c36-8365-9ae2c8e84e48}, !- Thermostat Name
  No;                                     !- Use Ideal Air Loads

OS:Node,
  {614f7cfc-3b8a-40f4-92df-2a433df4c00a}, !- Handle
  {a0f44c4c-bfc2-49a6-b32c-8539496ba21c}, !- Name
  {708e521c-ed4f-43eb-90fa-6153220de37e}, !- Inlet Port
  ;                                       !- Outlet Port

OS:Connection,
  {708e521c-ed4f-43eb-90fa-6153220de37e}, !- Handle
  {fd39f5ab-4134-428f-a2b6-4372fae260ec}, !- Name
  {017d7f89-e2d1-4add-8c98-f1199fb4ee1c}, !- Source Object
  11,                                     !- Outlet Port
  {614f7cfc-3b8a-40f4-92df-2a433df4c00a}, !- Target Object
  2;                                      !- Inlet Port

OS:PortList,
  {b8af3ce5-d3bc-4e27-9e56-30674f2a7b40}, !- Handle
  {6d9591fd-e3b3-46c8-9627-9fd79149289d}, !- Name
  {017d7f89-e2d1-4add-8c98-f1199fb4ee1c}, !- HVAC Component
  {0f060b17-0646-4164-93a6-22a5c5ecb610}; !- Port 1

OS:PortList,
  {85887c88-054f-41cf-b7ba-863bd761dd58}, !- Handle
  {75a2e92b-d570-4715-b7b7-5741ed1ddb65}, !- Name
  {017d7f89-e2d1-4add-8c98-f1199fb4ee1c}; !- HVAC Component

OS:PortList,
  {53bde444-fdb1-477d-ad9c-c1b71408ccc8}, !- Handle
  {69b1c1b2-0f64-4207-8679-9c0f7f42b48e}, !- Name
  {017d7f89-e2d1-4add-8c98-f1199fb4ee1c}, !- HVAC Component
  {48e27495-f198-4c6e-9ce7-8c2310d19c09}; !- Port 1

OS:Sizing:Zone,
  {9f63b4c6-dac6-4311-a109-2e24b27940d2}, !- Handle
  {017d7f89-e2d1-4add-8c98-f1199fb4ee1c}, !- Zone or ZoneList Name
  SupplyAirTemperature,                   !- Zone Cooling Design Supply Air Temperature Input Method
  12.777778,                              !- Zone Cooling Design Supply Air Temperature {C}
  11.11,                                  !- Zone Cooling Design Supply Air Temperature Difference {deltaC}
  SupplyAirTemperature,                   !- Zone Heating Design Supply Air Temperature Input Method
  40,                                     !- Zone Heating Design Supply Air Temperature {C}
  11.11,                                  !- Zone Heating Design Supply Air Temperature Difference {deltaC}
  0.0085,                                 !- Zone Cooling Design Supply Air Humidity Ratio {kg-H2O/kg-air}
  0.005,                                  !- Zone Heating Design Supply Air Humidity Ratio {kg-H2O/kg-air}
  ,                                       !- Zone Heating Sizing Factor
  ,                                       !- Zone Cooling Sizing Factor
  DesignDay,                              !- Cooling Design Air Flow Method
  ,                                       !- Cooling Design Air Flow Rate {m3/s}
  ,                                       !- Cooling Minimum Air Flow per Zone Floor Area {m3/s-m2}
  ,                                       !- Cooling Minimum Air Flow {m3/s}
  ,                                       !- Cooling Minimum Air Flow Fraction
  DesignDay,                              !- Heating Design Air Flow Method
  ,                                       !- Heating Design Air Flow Rate {m3/s}
  ,                                       !- Heating Maximum Air Flow per Zone Floor Area {m3/s-m2}
  ,                                       !- Heating Maximum Air Flow {m3/s}
  ,                                       !- Heating Maximum Air Flow Fraction
  ,                                       !- Design Zone Air Distribution Effectiveness in Cooling Mode
  ,                                       !- Design Zone Air Distribution Effectiveness in Heating Mode
  No,                                     !- Account for Dedicated Outdoor Air System
  NeutralSupplyAir,                       !- Dedicated Outdoor Air System Control Strategy
  autosize,                               !- Dedicated Outdoor Air Low Setpoint Temperature for Design {C}
  autosize;                               !- Dedicated Outdoor Air High Setpoint Temperature for Design {C}

OS:ZoneHVAC:EquipmentList,
  {5c3413e9-4caf-4c7f-a160-f1554ae52811}, !- Handle
  {20386d93-a756-48fd-b7ea-5753bd1e5d93}, !- Name
  {017d7f89-e2d1-4add-8c98-f1199fb4ee1c}, !- Thermal Zone
  ,                                       !- Load Distribution Scheme
  {50decdb2-54e5-4dfe-928c-6e7737eb1af4}, !- Zone Equipment 1
  1,                                      !- Zone Equipment Cooling Sequence 1
  1,                                      !- Zone Equipment Heating or No-Load Sequence 1
  ,                                       !- Zone Equipment Sequential Cooling Fraction 1
  ;                                       !- Zone Equipment Sequential Heating Fraction 1

OS:AdditionalProperties,
  {0a4156b2-700a-468e-b534-1506b108e6cb}, !- Handle
  {017d7f89-e2d1-4add-8c98-f1199fb4ee1c}, !- Object Name
  CADObjectId,                            !- Feature Name 1
  String,                                 !- Feature Data Type 1
  280991,                                 !- Feature Value 1
  id,                                     !- Feature Name 2
  String,                                 !- Feature Data Type 2
  aim0968;                                !- Feature Value 2

OS:ThermalZone,
  {30c9ea8d-fdf7-4031-9cf8-6e07f1367375}, !- Handle
  VAV Box Electric-1,                     !- Name
  ,                                       !- Multiplier
  ,                                       !- Ceiling Height {m}
  487.420145735823,                       !- Volume {m3}
  ,                                       !- Floor Area {m2}
  ,                                       !- Zone Inside Convection Algorithm
  ,                                       !- Zone Outside Convection Algorithm
  ,                                       !- Zone Conditioning Equipment List Name
  {fe0a1b1a-dbd8-40b8-8bae-36c87bbad528}, !- Zone Air Inlet Port List
  {37d180bc-c0d0-40f4-893f-6f2c45d2874d}, !- Zone Air Exhaust Port List
  {e0e76bb1-ff86-4ad7-b11e-110c1e8e2152}, !- Zone Air Node Name
  {91d7f9e3-5b80-4626-a034-81449f2c04ee}, !- Zone Return Air Port List
  ,                                       !- Primary Daylighting Control Name
  ,                                       !- Fraction of Zone Controlled by Primary Daylighting Control
  ,                                       !- Secondary Daylighting Control Name
  ,                                       !- Fraction of Zone Controlled by Secondary Daylighting Control
  ,                                       !- Illuminance Map Name
  ,                                       !- Group Rendering Name
  {e2182f23-1f65-404a-aa8c-a2d6e67cb016}, !- Thermostat Name
  No;                                     !- Use Ideal Air Loads

OS:Node,
  {3e4a68ac-5c94-472e-910a-c0c8177d038a}, !- Handle
  {fa387ba7-d799-4bd4-ac1f-db3e8cd01e65}, !- Name
  {e0e76bb1-ff86-4ad7-b11e-110c1e8e2152}, !- Inlet Port
  ;                                       !- Outlet Port

OS:Connection,
  {e0e76bb1-ff86-4ad7-b11e-110c1e8e2152}, !- Handle
  {76873844-59ad-4512-b025-4fc6484474ed}, !- Name
  {30c9ea8d-fdf7-4031-9cf8-6e07f1367375}, !- Source Object
  11,                                     !- Outlet Port
  {3e4a68ac-5c94-472e-910a-c0c8177d038a}, !- Target Object
  2;                                      !- Inlet Port

OS:PortList,
  {fe0a1b1a-dbd8-40b8-8bae-36c87bbad528}, !- Handle
  {fdf71bca-562b-4d7a-96c0-e9791e7dbc19}, !- Name
  {30c9ea8d-fdf7-4031-9cf8-6e07f1367375}, !- HVAC Component
  {04f83793-4b25-4ec5-99f2-9f217534bad6}; !- Port 1

OS:PortList,
  {37d180bc-c0d0-40f4-893f-6f2c45d2874d}, !- Handle
  {4ce0c0b5-2741-4e81-95e9-c287f07945f9}, !- Name
  {30c9ea8d-fdf7-4031-9cf8-6e07f1367375}; !- HVAC Component

OS:PortList,
  {91d7f9e3-5b80-4626-a034-81449f2c04ee}, !- Handle
  {9bd5356f-e877-428d-b609-e69b62eadd43}, !- Name
  {30c9ea8d-fdf7-4031-9cf8-6e07f1367375}, !- HVAC Component
  {b15bd029-b01d-4648-86a3-ed7278347442}; !- Port 1

OS:Sizing:Zone,
  {c30ae0f0-6862-4737-8a70-c3a29556bda5}, !- Handle
  {30c9ea8d-fdf7-4031-9cf8-6e07f1367375}, !- Zone or ZoneList Name
  SupplyAirTemperature,                   !- Zone Cooling Design Supply Air Temperature Input Method
  12.777778,                              !- Zone Cooling Design Supply Air Temperature {C}
  11.11,                                  !- Zone Cooling Design Supply Air Temperature Difference {deltaC}
  SupplyAirTemperature,                   !- Zone Heating Design Supply Air Temperature Input Method
  40,                                     !- Zone Heating Design Supply Air Temperature {C}
  11.11,                                  !- Zone Heating Design Supply Air Temperature Difference {deltaC}
  0.0085,                                 !- Zone Cooling Design Supply Air Humidity Ratio {kg-H2O/kg-air}
  0.005,                                  !- Zone Heating Design Supply Air Humidity Ratio {kg-H2O/kg-air}
  ,                                       !- Zone Heating Sizing Factor
  ,                                       !- Zone Cooling Sizing Factor
  DesignDay,                              !- Cooling Design Air Flow Method
  ,                                       !- Cooling Design Air Flow Rate {m3/s}
  ,                                       !- Cooling Minimum Air Flow per Zone Floor Area {m3/s-m2}
  ,                                       !- Cooling Minimum Air Flow {m3/s}
  ,                                       !- Cooling Minimum Air Flow Fraction
  DesignDay,                              !- Heating Design Air Flow Method
  ,                                       !- Heating Design Air Flow Rate {m3/s}
  ,                                       !- Heating Maximum Air Flow per Zone Floor Area {m3/s-m2}
  ,                                       !- Heating Maximum Air Flow {m3/s}
  ,                                       !- Heating Maximum Air Flow Fraction
  ,                                       !- Design Zone Air Distribution Effectiveness in Cooling Mode
  ,                                       !- Design Zone Air Distribution Effectiveness in Heating Mode
  No,                                     !- Account for Dedicated Outdoor Air System
  NeutralSupplyAir,                       !- Dedicated Outdoor Air System Control Strategy
  autosize,                               !- Dedicated Outdoor Air Low Setpoint Temperature for Design {C}
  autosize;                               !- Dedicated Outdoor Air High Setpoint Temperature for Design {C}

OS:ZoneHVAC:EquipmentList,
  {76f4d1df-b66d-4f2e-b848-f0da09d366f8}, !- Handle
  {7d775179-13db-44df-a290-560bf88e2ad9}, !- Name
  {30c9ea8d-fdf7-4031-9cf8-6e07f1367375}, !- Thermal Zone
  ,                                       !- Load Distribution Scheme
  {5df283cc-b5a7-4cbd-9669-d825c0ff8b46}, !- Zone Equipment 1
  1,                                      !- Zone Equipment Cooling Sequence 1
  1,                                      !- Zone Equipment Heating or No-Load Sequence 1
  ,                                       !- Zone Equipment Sequential Cooling Fraction 1
  ;                                       !- Zone Equipment Sequential Heating Fraction 1

OS:AdditionalProperties,
  {7928ff3e-e9ab-453e-a18d-e4a323bb4b0a}, !- Handle
  {30c9ea8d-fdf7-4031-9cf8-6e07f1367375}, !- Object Name
  CADObjectId,                            !- Feature Name 1
  String,                                 !- Feature Data Type 1
  280992,                                 !- Feature Value 1
  id,                                     !- Feature Name 2
  String,                                 !- Feature Data Type 2
  aim0973;                                !- Feature Value 2

OS:ThermalZone,
  {5eeb6276-c7f6-4494-9bf3-2b8f6bb886bd}, !- Handle
  VAV Box Furnace-1,                      !- Name
  ,                                       !- Multiplier
  ,                                       !- Ceiling Height {m}
  448.588404498816,                       !- Volume {m3}
  ,                                       !- Floor Area {m2}
  ,                                       !- Zone Inside Convection Algorithm
  ,                                       !- Zone Outside Convection Algorithm
  ,                                       !- Zone Conditioning Equipment List Name
  {b7a8078b-c570-44b9-8810-0563aa1935b9}, !- Zone Air Inlet Port List
  {ad58dc92-1e7b-4307-bbf4-be42daf16f6d}, !- Zone Air Exhaust Port List
  {90859f6d-adac-4cca-835c-8bc4275d9112}, !- Zone Air Node Name
  {71abd3b3-b11e-4f46-a6dd-5749da882cb3}, !- Zone Return Air Port List
  ,                                       !- Primary Daylighting Control Name
  ,                                       !- Fraction of Zone Controlled by Primary Daylighting Control
  ,                                       !- Secondary Daylighting Control Name
  ,                                       !- Fraction of Zone Controlled by Secondary Daylighting Control
  ,                                       !- Illuminance Map Name
  ,                                       !- Group Rendering Name
  {82e839b8-99ce-427b-8dce-f6647a7a2f55}, !- Thermostat Name
  No;                                     !- Use Ideal Air Loads

OS:Node,
  {7a63cdf5-5a67-4da8-ac9c-96214bc18ebc}, !- Handle
  {cca845fa-f278-478e-9b6e-78671904018c}, !- Name
  {90859f6d-adac-4cca-835c-8bc4275d9112}, !- Inlet Port
  ;                                       !- Outlet Port

OS:Connection,
  {90859f6d-adac-4cca-835c-8bc4275d9112}, !- Handle
  {2762c12b-4ba9-48fc-abea-905dfb5adbe3}, !- Name
  {5eeb6276-c7f6-4494-9bf3-2b8f6bb886bd}, !- Source Object
  11,                                     !- Outlet Port
  {7a63cdf5-5a67-4da8-ac9c-96214bc18ebc}, !- Target Object
  2;                                      !- Inlet Port

OS:PortList,
  {b7a8078b-c570-44b9-8810-0563aa1935b9}, !- Handle
  {b9a8bfa5-062f-449d-80cc-8c0050f64b11}, !- Name
  {5eeb6276-c7f6-4494-9bf3-2b8f6bb886bd}, !- HVAC Component
  {af4547b5-2a3c-4bf6-a8ac-4305d8785572}; !- Port 1

OS:PortList,
  {ad58dc92-1e7b-4307-bbf4-be42daf16f6d}, !- Handle
  {55446dac-3b6d-440e-ac59-1e82273f80e3}, !- Name
  {5eeb6276-c7f6-4494-9bf3-2b8f6bb886bd}; !- HVAC Component

OS:PortList,
  {71abd3b3-b11e-4f46-a6dd-5749da882cb3}, !- Handle
  {a5080a20-9999-4f21-a8fa-5c9aabce2919}, !- Name
  {5eeb6276-c7f6-4494-9bf3-2b8f6bb886bd}, !- HVAC Component
  {a424c94a-ca76-43dc-8624-6dd787cb6fc9}; !- Port 1

OS:Sizing:Zone,
  {162a2ee1-eae0-4a93-9449-2468eb4f2183}, !- Handle
  {5eeb6276-c7f6-4494-9bf3-2b8f6bb886bd}, !- Zone or ZoneList Name
  SupplyAirTemperature,                   !- Zone Cooling Design Supply Air Temperature Input Method
  12.777778,                              !- Zone Cooling Design Supply Air Temperature {C}
  11.11,                                  !- Zone Cooling Design Supply Air Temperature Difference {deltaC}
  SupplyAirTemperature,                   !- Zone Heating Design Supply Air Temperature Input Method
  40,                                     !- Zone Heating Design Supply Air Temperature {C}
  11.11,                                  !- Zone Heating Design Supply Air Temperature Difference {deltaC}
  0.0085,                                 !- Zone Cooling Design Supply Air Humidity Ratio {kg-H2O/kg-air}
  0.005,                                  !- Zone Heating Design Supply Air Humidity Ratio {kg-H2O/kg-air}
  ,                                       !- Zone Heating Sizing Factor
  ,                                       !- Zone Cooling Sizing Factor
  DesignDay,                              !- Cooling Design Air Flow Method
  ,                                       !- Cooling Design Air Flow Rate {m3/s}
  ,                                       !- Cooling Minimum Air Flow per Zone Floor Area {m3/s-m2}
  ,                                       !- Cooling Minimum Air Flow {m3/s}
  ,                                       !- Cooling Minimum Air Flow Fraction
  DesignDay,                              !- Heating Design Air Flow Method
  ,                                       !- Heating Design Air Flow Rate {m3/s}
  ,                                       !- Heating Maximum Air Flow per Zone Floor Area {m3/s-m2}
  ,                                       !- Heating Maximum Air Flow {m3/s}
  ,                                       !- Heating Maximum Air Flow Fraction
  ,                                       !- Design Zone Air Distribution Effectiveness in Cooling Mode
  ,                                       !- Design Zone Air Distribution Effectiveness in Heating Mode
  No,                                     !- Account for Dedicated Outdoor Air System
  NeutralSupplyAir,                       !- Dedicated Outdoor Air System Control Strategy
  autosize,                               !- Dedicated Outdoor Air Low Setpoint Temperature for Design {C}
  autosize;                               !- Dedicated Outdoor Air High Setpoint Temperature for Design {C}

OS:ZoneHVAC:EquipmentList,
  {94edb856-aa09-4643-aca6-0a667276fbfc}, !- Handle
  {ca5f30ee-2ed2-4325-9006-46f2d1db5a31}, !- Name
  {5eeb6276-c7f6-4494-9bf3-2b8f6bb886bd}, !- Thermal Zone
  ,                                       !- Load Distribution Scheme
  {8f5326f1-c0e7-4c80-9e31-25803abc12f0}, !- Zone Equipment 1
  1,                                      !- Zone Equipment Cooling Sequence 1
  1,                                      !- Zone Equipment Heating or No-Load Sequence 1
  ,                                       !- Zone Equipment Sequential Cooling Fraction 1
  ;                                       !- Zone Equipment Sequential Heating Fraction 1

OS:AdditionalProperties,
  {8adc38bf-2d0e-41ac-8278-069e39313d1c}, !- Handle
  {5eeb6276-c7f6-4494-9bf3-2b8f6bb886bd}, !- Object Name
  CADObjectId,                            !- Feature Name 1
  String,                                 !- Feature Data Type 1
  280993,                                 !- Feature Value 1
  id,                                     !- Feature Name 2
  String,                                 !- Feature Data Type 2
  aim0978;                                !- Feature Value 2

OS:ThermalZone,
  {749c4e1f-f9b6-4c4c-ba26-2e3555f2b223}, !- Handle
  VAV Box No Reheat-1,                    !- Name
  ,                                       !- Multiplier
  ,                                       !- Ceiling Height {m}
  493.914048164767,                       !- Volume {m3}
  ,                                       !- Floor Area {m2}
  ,                                       !- Zone Inside Convection Algorithm
  ,                                       !- Zone Outside Convection Algorithm
  ,                                       !- Zone Conditioning Equipment List Name
  {e9ea10a3-61ef-49af-bb14-bacaffa626c6}, !- Zone Air Inlet Port List
  {874a7294-ae2b-4cd8-8a15-000d7405a1c0}, !- Zone Air Exhaust Port List
  {e033dcfb-08f3-46b8-879e-62cf7519b669}, !- Zone Air Node Name
  {e1f7d776-dff5-49ae-b44d-a8d437c1a999}, !- Zone Return Air Port List
  ,                                       !- Primary Daylighting Control Name
  ,                                       !- Fraction of Zone Controlled by Primary Daylighting Control
  ,                                       !- Secondary Daylighting Control Name
  ,                                       !- Fraction of Zone Controlled by Secondary Daylighting Control
  ,                                       !- Illuminance Map Name
  ,                                       !- Group Rendering Name
  {edddefcf-3165-4933-bacd-d338117f01f6}, !- Thermostat Name
  No;                                     !- Use Ideal Air Loads

OS:Node,
  {6cae81b7-5fec-4b6f-a4c3-43ea046ba9b3}, !- Handle
  {0d8c41e8-c548-464a-a2b4-c831549efcba}, !- Name
  {e033dcfb-08f3-46b8-879e-62cf7519b669}, !- Inlet Port
  ;                                       !- Outlet Port

OS:Connection,
  {e033dcfb-08f3-46b8-879e-62cf7519b669}, !- Handle
  {981c967b-f2c7-4d78-8081-c61eaeeeca5d}, !- Name
  {749c4e1f-f9b6-4c4c-ba26-2e3555f2b223}, !- Source Object
  11,                                     !- Outlet Port
  {6cae81b7-5fec-4b6f-a4c3-43ea046ba9b3}, !- Target Object
  2;                                      !- Inlet Port

OS:PortList,
  {e9ea10a3-61ef-49af-bb14-bacaffa626c6}, !- Handle
  {2b68d63b-e8d5-4252-b6da-ca2ddf362e4b}, !- Name
  {749c4e1f-f9b6-4c4c-ba26-2e3555f2b223}, !- HVAC Component
  {e3c52238-7fb4-440c-82a5-8dc614c9ea29}, !- Port 1
  {e3851d63-0cf5-47f6-ad31-efc0a1538d43}; !- Port 2

OS:PortList,
  {874a7294-ae2b-4cd8-8a15-000d7405a1c0}, !- Handle
  {69f098c7-c65d-4f32-9d85-d628d5ef0c9e}, !- Name
  {749c4e1f-f9b6-4c4c-ba26-2e3555f2b223}, !- HVAC Component
  {90a0fe58-e400-4c86-b5f8-d43b33a9471e}; !- Port 1

OS:PortList,
  {e1f7d776-dff5-49ae-b44d-a8d437c1a999}, !- Handle
  {9d8aeb8f-176f-48e5-bf06-5db1121f864a}, !- Name
  {749c4e1f-f9b6-4c4c-ba26-2e3555f2b223}, !- HVAC Component
  {371073b2-8161-495c-91b5-3d86635b812c}; !- Port 1

OS:Sizing:Zone,
  {42f33505-ae1d-4472-b72f-d0a21772b67d}, !- Handle
  {749c4e1f-f9b6-4c4c-ba26-2e3555f2b223}, !- Zone or ZoneList Name
  SupplyAirTemperature,                   !- Zone Cooling Design Supply Air Temperature Input Method
  12.777778,                              !- Zone Cooling Design Supply Air Temperature {C}
  11.11,                                  !- Zone Cooling Design Supply Air Temperature Difference {deltaC}
  SupplyAirTemperature,                   !- Zone Heating Design Supply Air Temperature Input Method
  40,                                     !- Zone Heating Design Supply Air Temperature {C}
  11.11,                                  !- Zone Heating Design Supply Air Temperature Difference {deltaC}
  0.0085,                                 !- Zone Cooling Design Supply Air Humidity Ratio {kg-H2O/kg-air}
  0.005,                                  !- Zone Heating Design Supply Air Humidity Ratio {kg-H2O/kg-air}