
Version,
  9.1;                                    !- Version Identifier

Timestep,
  4;                                      !- Number of Timesteps per Hour

LifeCycleCost:Parameters,
  Life Cycle Cost Parameters,             !- Name
  EndOfYear,                              !- Discounting Convention
  ConstantDollar,                         !- Inflation Approach
  0.03,                                   !- Real Discount Rate
  ,                                       !- Nominal Discount Rate
  ,                                       !- Inflation
  ,                                       !- Base Date Month
  2011,                                   !- Base Date Year
  ,                                       !- Service Date Month
  2011,                                   !- Service Date Year
  25,                                     !- Length of Study Period in Years
  ,                                       !- Tax rate
  None;                                   !- Depreciation Method

LifeCycleCost:UsePriceEscalation,
  U.S. Avg  Commercial-Electricity,       !- LCC Price Escalation Name
  Electricity,                            !- Resource
  2011,                                   !- Escalation Start Year
  January,                                !- Escalation Start Month
  0.9838,                                 !- Year Escalation 1
  0.9730,                                 !- Year Escalation 2
  0.9632,                                 !- Year Escalation 3
  0.9611,                                 !- Year Escalation 4
  0.9571,                                 !- Year Escalation 5
  0.9553,                                 !- Year Escalation 6
  0.9539,                                 !- Year Escalation 7
  0.9521,                                 !- Year Escalation 8
  0.9546,                                 !- Year Escalation 9
  0.9550,                                 !- Year Escalation 10
  0.9553,                                 !- Year Escalation 11
  0.9564,                                 !- Year Escalation 12
  0.9575,                                 !- Year Escalation 13
  0.9596,                                 !- Year Escalation 14
  0.9618,                                 !- Year Escalation 15
  0.9614,                                 !- Year Escalation 16
  0.9618,                                 !- Year Escalation 17
  0.9618,                                 !- Year Escalation 18
  0.9593,                                 !- Year Escalation 19
  0.9589,                                 !- Year Escalation 20
  0.9607,                                 !- Year Escalation 21
  0.9625,                                 !- Year Escalation 22
  0.9650,                                 !- Year Escalation 23
  0.9708,                                 !- Year Escalation 24
  0.9751,                                 !- Year Escalation 25
  0.9762,                                 !- Year Escalation 26
  0.9766,                                 !- Year Escalation 27
  0.9766,                                 !- Year Escalation 28
  0.9769,                                 !- Year Escalation 29
  0.9773;                                 !- Year Escalation 30

LifeCycleCost:UsePriceEscalation,
  U.S. Avg  Commercial-Distillate Oil,    !- LCC Price Escalation Name
  FuelOil#1,                              !- Resource
  2011,                                   !- Escalation Start Year
  January,                                !- Escalation Start Month
  0.9714,                                 !- Year Escalation 1
  0.9730,                                 !- Year Escalation 2
  0.9942,                                 !- Year Escalation 3
  1.0164,                                 !- Year Escalation 4
  1.0541,                                 !- Year Escalation 5
  1.0928,                                 !- Year Escalation 6
  1.1267,                                 !- Year Escalation 7
  1.1580,                                 !- Year Escalation 8
  1.1792,                                 !- Year Escalation 9
  1.1967,                                 !- Year Escalation 10
  1.2200,                                 !- Year Escalation 11
  1.2333,                                 !- Year Escalation 12
  1.2566,                                 !- Year Escalation 13
  1.2709,                                 !- Year Escalation 14
  1.2826,                                 !- Year Escalation 15
  1.2985,                                 !- Year Escalation 16
  1.3102,                                 !- Year Escalation 17
  1.3250,                                 !- Year Escalation 18
  1.3261,                                 !- Year Escalation 19
  1.3282,                                 !- Year Escalation 20
  1.3324,                                 !- Year Escalation 21
  1.3356,                                 !- Year Escalation 22
  1.3431,                                 !- Year Escalation 23
  1.3510,                                 !- Year Escalation 24
  1.3568,                                 !- Year Escalation 25
  1.3606,                                 !- Year Escalation 26
  1.3637,                                 !- Year Escalation 27
  1.3674,                                 !- Year Escalation 28
  1.3706,                                 !- Year Escalation 29
  1.3743;                                 !- Year Escalation 30

LifeCycleCost:UsePriceEscalation,
  U.S. Avg  Commercial-Residual Oil,      !- LCC Price Escalation Name
  FuelOil#2,                              !- Resource
  2011,                                   !- Escalation Start Year
  January,                                !- Escalation Start Month
  0.8469,                                 !- Year Escalation 1
  0.8257,                                 !- Year Escalation 2
  0.8681,                                 !- Year Escalation 3
  0.8988,                                 !- Year Escalation 4
  0.9289,                                 !- Year Escalation 5
  0.9604,                                 !- Year Escalation 6
  0.9897,                                 !- Year Escalation 7
  1.0075,                                 !- Year Escalation 8
  1.0314,                                 !- Year Escalation 9
  1.0554,                                 !- Year Escalation 10
  1.0861,                                 !- Year Escalation 11
  1.1278,                                 !- Year Escalation 12
  1.1497,                                 !- Year Escalation 13
  1.1620,                                 !- Year Escalation 14
  1.1743,                                 !- Year Escalation 15
  1.1852,                                 !- Year Escalation 16
  1.1948,                                 !- Year Escalation 17
  1.2037,                                 !- Year Escalation 18
  1.2071,                                 !- Year Escalation 19
  1.2119,                                 !- Year Escalation 20
  1.2139,                                 !- Year Escalation 21
  1.2194,                                 !- Year Escalation 22
  1.2276,                                 !- Year Escalation 23
  1.2365,                                 !- Year Escalation 24
  1.2420,                                 !- Year Escalation 25
  1.2461,                                 !- Year Escalation 26
  1.2509,                                 !- Year Escalation 27
  1.2550,                                 !- Year Escalation 28
  1.2591,                                 !- Year Escalation 29
  1.2638;                                 !- Year Escalation 30

LifeCycleCost:UsePriceEscalation,
  U.S. Avg  Commercial-Natural gas,       !- LCC Price Escalation Name
  NaturalGas,                             !- Resource
  2011,                                   !- Escalation Start Year
  January,                                !- Escalation Start Month
  0.9823,                                 !- Year Escalation 1
  0.9557,                                 !- Year Escalation 2
  0.9279,                                 !- Year Escalation 3
  0.9257,                                 !- Year Escalation 4
  0.9346,                                 !- Year Escalation 5
  0.9412,                                 !- Year Escalation 6
  0.9512,                                 !- Year Escalation 7
  0.9645,                                 !- Year Escalation 8
  0.9856,                                 !- Year Escalation 9
  1.0067,                                 !- Year Escalation 10
  1.0222,                                 !- Year Escalation 11
  1.0410,                                 !- Year Escalation 12
  1.0610,                                 !- Year Escalation 13
  1.0787,                                 !- Year Escalation 14
  1.0942,                                 !- Year Escalation 15
  1.1098,                                 !- Year Escalation 16
  1.1220,                                 !- Year Escalation 17
  1.1308,                                 !- Year Escalation 18
  1.1386,                                 !- Year Escalation 19
  1.1486,                                 !- Year Escalation 20
  1.1619,                                 !- Year Escalation 21
  1.1763,                                 !- Year Escalation 22
  1.1918,                                 !- Year Escalation 23
  1.2118,                                 !- Year Escalation 24
  1.2284,                                 !- Year Escalation 25
  1.2439,                                 !- Year Escalation 26
  1.2605,                                 !- Year Escalation 27
  1.2772,                                 !- Year Escalation 28
  1.2938,                                 !- Year Escalation 29
  1.3115;                                 !- Year Escalation 30

LifeCycleCost:UsePriceEscalation,
  U.S. Avg  Commercial-Coal,              !- LCC Price Escalation Name
  Coal,                                   !- Resource
  2011,                                   !- Escalation Start Year
  January,                                !- Escalation Start Month
  0.9970,                                 !- Year Escalation 1
  1.0089,                                 !- Year Escalation 2
  1.0089,                                 !- Year Escalation 3
  0.9941,                                 !- Year Escalation 4
  0.9941,                                 !- Year Escalation 5
  1.0000,                                 !- Year Escalation 6
  1.0030,                                 !- Year Escalation 7
  1.0059,                                 !- Year Escalation 8
  1.0089,                                 !- Year Escalation 9
  1.0119,                                 !- Year Escalation 10
  1.0148,                                 !- Year Escalation 11
  1.0178,                                 !- Year Escalation 12
  1.0208,                                 !- Year Escalation 13
  1.0267,                                 !- Year Escalation 14
  1.0297,                                 !- Year Escalation 15
  1.0356,                                 !- Year Escalation 16
  1.0415,                                 !- Year Escalation 17
  1.0534,                                 !- Year Escalation 18
  1.0564,                                 !- Year Escalation 19
  1.0593,                                 !- Year Escalation 20
  1.0653,                                 !- Year Escalation 21
  1.0712,                                 !- Year Escalation 22
  1.0742,                                 !- Year Escalation 23
  1.0801,                                 !- Year Escalation 24
  1.0831,                                 !- Year Escalation 25
  1.0831,                                 !- Year Escalation 26
  1.0861,                                 !- Year Escalation 27
  1.0890,                                 !- Year Escalation 28
  1.0920,                                 !- Year Escalation 29
  1.0950;                                 !- Year Escalation 30

Building,
  Project Name,                           !- Name
  ,                                       !- North Axis {deg}
  ,                                       !- Terrain
  0.1,                                    !- Loads Convergence Tolerance Value
  0.5,                                    !- Temperature Convergence Tolerance Value {deltaC}
  FullExterior,                           !- Solar Distribution
  25,                                     !- Maximum Number of Warmup Days
  6;                                      !- Minimum Number of Warmup Days

Zone,
  VAV Box Electric-1,                     !- Name
  ,                                       !- Direction of Relative North {deg}
  ,                                       !- X Origin {m}
  ,                                       !- Y Origin {m}
  ,                                       !- Z Origin {m}
  ,                                       !- Type
  ,                                       !- Multiplier
  ,                                       !- Ceiling Height {m}
  487.420145735823,                       !- Volume {m3}
  ,                                       !- Floor Area {m2}
  ,                                       !- Zone Inside Convection Algorithm
  ;                                       !- Zone Outside Convection Algorithm

BuildingSurface:Detailed,
  aim0156,                                !- Name
  Wall,                                   !- Surface Type
  R-13 wood frame wall,                   !- Construction Name
  VAV Box Electric-1,                     !- Zone Name
  Outdoors,                               !- Outside Boundary Condition
  ,                                       !- Outside Boundary Condition Object
  SunExposed,                             !- Sun Exposure
  WindExposed,                            !- Wind Exposure
  ,                                       !- View Factor to Ground
  ,                                       !- Number of Vertices
  -3.400589592, 0.9396868176, 0,          !- X,Y,Z Vertex 1 {m}
  -3.400589592, 0.9396868176, 3.3528,     !- X,Y,Z Vertex 2 {m}
  -3.400589592, 10.388486208, 3.3528,     !- X,Y,Z Vertex 3 {m}
  -3.400589592, 10.388486208, 0;          !- X,Y,Z Vertex 4 {m}

BuildingSurface:Detailed,
  aim0319,                                !- Name
  Wall,                                   !- Surface Type
  R-13 wood frame wall,                   !- Construction Name
  VAV Box Electric-1,                     !- Zone Name
  Outdoors,                               !- Outside Boundary Condition
  ,                                       !- Outside Boundary Condition Object
  SunExposed,                             !- Sun Exposure
  WindExposed,                            !- Wind Exposure
  ,                                       !- View Factor to Ground
  ,                                       !- Number of Vertices
  -3.400589592, 10.388486208, 0,          !- X,Y,Z Vertex 1 {m}
  -3.400589592, 10.388486208, 3.3528,     !- X,Y,Z Vertex 2 {m}
  14.277813456, 10.388486208, 3.3528,     !- X,Y,Z Vertex 3 {m}
  14.277813456, 10.388486208, 0;          !- X,Y,Z Vertex 4 {m}

BuildingSurface:Detailed,
  aim0556 Reversed,                       !- Name
  Wall,                                   !- Surface Type
  R-0 metal frame wall,                   !- Construction Name
  VAV Box Electric-1,                     !- Zone Name
  Surface,                                !- Outside Boundary Condition
  aim0556,                                !- Outside Boundary Condition Object
  NoSun,                                  !- Sun Exposure
  NoWind,                                 !- Wind Exposure
  ,                                       !- View Factor to Ground
  ,                                       !- Number of Vertices
  14.277813456, 0.9396868176, 0,          !- X,Y,Z Vertex 1 {m}
  14.277813456, 0.9396868176, 3.3528,     !- X,Y,Z Vertex 2 {m}
  -3.400589592, 0.9396868176, 3.3528,     !- X,Y,Z Vertex 3 {m}
  -3.400589592, 0.9396868176, 0;          !- X,Y,Z Vertex 4 {m}

BuildingSurface:Detailed,
  aim0594 Reversed,                       !- Name
  Wall,                                   !- Surface Type
  R-0 metal frame wall,                   !- Construction Name
  VAV Box Electric-1,                     !- Zone Name
  Surface,                                !- Outside Boundary Condition
  aim0594,                                !- Outside Boundary Condition Object
  NoSun,                                  !- Sun Exposure
  NoWind,                                 !- Wind Exposure
  ,                                       !- View Factor to Ground
  ,                                       !- Number of Vertices
  14.277813456, 10.388486208, 0,          !- X,Y,Z Vertex 1 {m}
  14.277813456, 10.388486208, 3.3528,     !- X,Y,Z Vertex 2 {m}
  14.277813456, 0.9396868176, 3.3528,     !- X,Y,Z Vertex 3 {m}
  14.277813456, 0.9396868176, 0;          !- X,Y,Z Vertex 4 {m}

BuildingSurface:Detailed,
  aim0744,                                !- Name
  Roof,                                   !- Surface Type
  R-20 over roof deck - cool roof,        !- Construction Name
  VAV Box Electric-1,                     !- Zone Name
  Outdoors,                               !- Outside Boundary Condition
  ,                                       !- Outside Boundary Condition Object
  SunExposed,                             !- Sun Exposure
  WindExposed,                            !- Wind Exposure
  ,                                       !- View Factor to Ground
  ,                                       !- Number of Vertices
  -3.29898756, 0.9396868176, 3.3528,      !- X,Y,Z Vertex 1 {m}
  14.277813456, 0.9396868176, 3.3528,     !- X,Y,Z Vertex 2 {m}
  14.277813456, 10.388486208, 3.3528,     !- X,Y,Z Vertex 3 {m}
  -3.29898756, 10.388486208, 3.3528;      !- X,Y,Z Vertex 4 {m}

BuildingSurface:Detailed,
  aim0855,                                !- Name
  Floor,                                  !- Surface Type
  Slab edge uninsulated,                  !- Construction Name
  VAV Box Electric-1,                     !- Zone Name
  Ground,                                 !- Outside Boundary Condition
  ,                                       !- Outside Boundary Condition Object
  NoSun,                                  !- Sun Exposure
  NoWind,                                 !- Wind Exposure
  ,                                       !- View Factor to Ground
  ,                                       !- Number of Vertices
  -3.400589592, 0.9396868176, 0,          !- X,Y,Z Vertex 1 {m}
  -3.400589592, 10.388486208, 0,          !- X,Y,Z Vertex 2 {m}
  14.277813456, 10.388486208, 0,          !- X,Y,Z Vertex 3 {m}
  14.277813456, 0.9396868176, 0;          !- X,Y,Z Vertex 4 {m}

People,
  Space 1_people,                         !- Name
  VAV Box Electric-1,                     !- Zone or ZoneList Name
  School Occupancy - 8am to 9pm,          !- Number of People Schedule Name
  People,                                 !- Number of People Calculation Method
  72,                                     !- Number of People
  ,                                       !- People per Zone Floor Area {person/m2}
  ,                                       !- Zone Floor Area per Person {m2/person}
  0.3,                                    !- Fraction Radiant
  0.5,                                    !- Sensible Heat Fraction
  activity_70.33705684133334;             !- Activity Level Schedule Name

Lights,
  Space 1_lights,                         !- Name
  VAV Box Electric-1,                     !- Zone or ZoneList Name
  School Lighting - 7 AM to 9 PM,         !- Schedule Name
  Watts/Area,                             !- Design Level Calculation Method
  ,                                       !- Lighting Level {W}
  21.5170569230027,                       !- Watts per Zone Floor Area {W/m2}
  ,                                       !- Watts per Person {W/person}
  ,                                       !- Return Air Fraction
  ,                                       !- Fraction Radiant
  ,                                       !- Fraction Visible
  1,                                      !- Fraction Replaceable
  General;                                !- End-Use Subcategory

ScheduleTypeLimits,
  Fractional,                             !- Name
  0,                                      !- Lower Limit Value {BasedOnField A3}
  1,                                      !- Upper Limit Value {BasedOnField A3}
  Continuous;                             !- Numeric Type

Schedule:Day:Interval,
  School Lighting - 7 AM to 9 PM All,     !- Name
  Fractional,                             !- Schedule Type Limits Name
  No,                                     !- Interpolate to Timestep
  07:00,                                  !- Time 1 {hh:mm}
  0,                                      !- Value Until Time 1
  08:00,                                  !- Time 2 {hh:mm}
  0.3,                                    !- Value Until Time 2
  09:00,                                  !- Time 3 {hh:mm}
  0.85,                                   !- Value Until Time 3
  12:00,                                  !- Time 4 {hh:mm}
  0.95,                                   !- Value Until Time 4
  15:00,                                  !- Time 5 {hh:mm}
  0.8,                                    !- Value Until Time 5
  16:00,                                  !- Time 6 {hh:mm}
  0.7,                                    !- Value Until Time 6
  18:00,                                  !- Time 7 {hh:mm}
  0.5,                                    !- Value Until Time 7
  20:00,                                  !- Time 8 {hh:mm}
  0.35,                                   !- Value Until Time 8
  22:00,                                  !- Time 9 {hh:mm}
  0.3,                                    !- Value Until Time 9
  24:00,                                  !- Time 10 {hh:mm}
  0;                                      !- Value Until Time 10

Schedule:Day:Interval,
  School Lighting - 7 AM to 9 PM Sat,     !- Name
  Fractional,                             !- Schedule Type Limits Name
  No,                                     !- Interpolate to Timestep
  07:00,                                  !- Time 1 {hh:mm}
  0,                                      !- Value Until Time 1
  09:00,                                  !- Time 2 {hh:mm}
  0.1,                                    !- Value Until Time 2
  13:00,                                  !- Time 3 {hh:mm}
  0.2,                                    !- Value Until Time 3
  16:00,                                  !- Time 4 {hh:mm}
  0.1,                                    !- Value Until Time 4
  24:00,                                  !- Time 5 {hh:mm}
  0;                                      !- Value Until Time 5

Schedule:Day:Interval,
  School Lighting - 7 AM to 9 PM Sun,     !- Name
  Fractional,                             !- Schedule Type Limits Name
  No,                                     !- Interpolate to Timestep
  24:00,                                  !- Time 1 {hh:mm}
  0;                                      !- Value Until Time 1

Schedule:Week:Daily,
  School Lighting - 7 AM to 9 PM Week Rule - Jan1-Jan4, !- Name
  Schedule Day 1,                         !- Sunday Schedule:Day Name
  Schedule Day 1,                         !- Monday Schedule:Day Name
  Schedule Day 1,                         !- Tuesday Schedule:Day Name
  School Lighting - 7 AM to 9 PM All,     !- Wednesday Schedule:Day Name
  School Lighting - 7 AM to 9 PM All,     !- Thursday Schedule:Day Name
  School Lighting - 7 AM to 9 PM All,     !- Friday Schedule:Day Name
  School Lighting - 7 AM to 9 PM Sat,     !- Saturday Schedule:Day Name
  Schedule Day 1,                         !- Holiday Schedule:Day Name
  School Lighting - 7 AM to 9 PM Summer Design Day, !- SummerDesignDay Schedule:Day Name
  School Lighting - 7 AM to 9 PM Winter Design Day, !- WinterDesignDay Schedule:Day Name
  Schedule Day 1,                         !- CustomDay1 Schedule:Day Name
  Schedule Day 1;                         !- CustomDay2 Schedule:Day Name

Schedule:Week:Daily,
  School Lighting - 7 AM to 9 PM Week Rule - Jan5-Dec31, !- Name
  School Lighting - 7 AM to 9 PM Sun,     !- Sunday Schedule:Day Name
  School Lighting - 7 AM to 9 PM All,     !- Monday Schedule:Day Name
  School Lighting - 7 AM to 9 PM All,     !- Tuesday Schedule:Day Name
  School Lighting - 7 AM to 9 PM All,     !- Wednesday Schedule:Day Name
  School Lighting - 7 AM to 9 PM All,     !- Thursday Schedule:Day Name
  School Lighting - 7 AM to 9 PM All,     !- Friday Schedule:Day Name
  School Lighting - 7 AM to 9 PM Sat,     !- Saturday Schedule:Day Name
  Schedule Day 1,                         !- Holiday Schedule:Day Name
  School Lighting - 7 AM to 9 PM Summer Design Day, !- SummerDesignDay Schedule:Day Name
  School Lighting - 7 AM to 9 PM Winter Design Day, !- WinterDesignDay Schedule:Day Name
  Schedule Day 1,                         !- CustomDay1 Schedule:Day Name
  Schedule Day 1;                         !- CustomDay2 Schedule:Day Name

Schedule:Year,
  School Lighting - 7 AM to 9 PM,         !- Name
  Fractional,                             !- Schedule Type Limits Name
  School Lighting - 7 AM to 9 PM Week Rule - Jan1-Jan4, !- Schedule:Week Name 1
  1,                                      !- Start Month 1
  1,                                      !- Start Day 1
  1,                                      !- End Month 1
  4,                                      !- End Day 1
  School Lighting - 7 AM to 9 PM Week Rule - Jan5-Dec31, !- Schedule:Week Name 2
  1,                                      !- Start Month 2
  5,                                      !- Start Day 2
  12,                                     !- End Month 2
  31;                                     !- End Day 2

Schedule:Day:Interval,
  Schedule Day 1,                         !- Name
  Fractional,                             !- Schedule Type Limits Name
  No,                                     !- Interpolate to Timestep
  24:00,                                  !- Time 1 {hh:mm}
  0;                                      !- Value Until Time 1

Schedule:Day:Interval,
  School Lighting - 7 AM to 9 PM Summer Design Day, !- Name
  Fractional,                             !- Schedule Type Limits Name
  No,                                     !- Interpolate to Timestep
  24:00,                                  !- Time 1 {hh:mm}
  1;                                      !- Value Until Time 1

Schedule:Day:Interval,
  School Lighting - 7 AM to 9 PM Winter Design Day, !- Name
  Fractional,                             !- Schedule Type Limits Name
  No,                                     !- Interpolate to Timestep
  24:00,                                  !- Time 1 {hh:mm}
  0;                                      !- Value Until Time 1

ElectricEquipment,
  Space 1_elec_equip,                     !- Name
  VAV Box Electric-1,                     !- Zone or ZoneList Name
  School Lighting - 7 AM to 9 PM,         !- Schedule Name
  Watts/Area,                             !- Design Level Calculation Method
  ,                                       !- Design Level {W}
  21.5278208334194,                       !- Watts per Zone Floor Area {W/m2}
  ,                                       !- Watts per Person {W/person}
  ,                                       !- Fraction Latent
  ,                                       !- Fraction Radiant
  ,                                       !- Fraction Lost
  General;                                !- End-Use Subcategory

ZoneInfiltration:DesignFlowRate,
  Space 1_infiltration,                   !- Name
  VAV Box Electric-1,                     !- Zone or ZoneList Name
  All None Occ Sch based infiltration sch, !- Schedule Name
  Flow/ExteriorWallArea,                  !- Design Flow Rate Calculation Method
  ,                                       !- Design Flow Rate {m3/s}
  ,                                       !- Flow per Zone Floor Area {m3/s-m2}
  0.00019304,                             !- Flow per Exterior Surface Area {m3/s-m2}
  ,                                       !- Air Changes per Hour {1/hr}
  ,                                       !- Constant Term Coefficient
  ,                                       !- Temperature Term Coefficient
  ,                                       !- Velocity Term Coefficient
  ;                                       !- Velocity Squared Term Coefficient

ZoneControl:Thermostat,
  VAV Box Electric-1 Thermostat,          !- Name
  VAV Box Electric-1,                     !- Zone or ZoneList Name
  VAV Box Electric-1 Thermostat Schedule, !- Control Type Schedule Name
  ThermostatSetpoint:DualSetpoint,        !- Control Object Type 1
  Thermostat Setpoint Dual Setpoint 2;    !- Control Name 1

Schedule:Compact,
  VAV Box Electric-1 Thermostat Schedule, !- Name
  VAV Box Electric-1 Thermostat Schedule Type Limits, !- Schedule Type Limits Name
  Through: 12/31,                         !- Field 1
  For: AllDays,                           !- Field 2
  Until: 24:00,                           !- Field 3
  4;                                      !- Field 4

ScheduleTypeLimits,
  VAV Box Electric-1 Thermostat Schedule Type Limits, !- Name
  0,                                      !- Lower Limit Value {BasedOnField A3}
  4,                                      !- Upper Limit Value {BasedOnField A3}
  DISCRETE;                               !- Numeric Type

ThermostatSetpoint:DualSetpoint,
  Thermostat Setpoint Dual Setpoint 2,    !- Name
  VAV Box Electric-1 Htg Setpoint Schedule with Setback, !- Heating Setpoint Temperature Schedule Name
  VAV Box Electric-1 Clg Setpoint Schedule with Setback; !- Cooling Setpoint Temperature Schedule Name

ScheduleTypeLimits,
  Temperature Schedule Type Limits,       !- Name