
OS:Version,
  {6fbe5b5b-379f-4b40-8bc8-19e3449e96ab}, !- Handle
  2.8.0;                                  !- Version Identifier

OS:Material,
  {018fd241-16e8-4d0e-93fe-c15177bb90a6}, !- Handle
  Wood shingle  (WS01),                   !- Name
  MediumRough,                            !- Roughness
  0.017769,                               !- Thickness {m}
  0.11544,                                !- Conductivity {W/m-K}
  512.64,                                 !- Density {kg/m3}
  1256.04,                                !- Specific Heat {J/kg-K}
  ,                                       !- Thermal Absorptance
  0.7;                                    !- Solar Absorptance

OS:Material:NoMass,
  {7d3211a1-18b7-49b5-8539-a67ce630c34e}, !- Handle
  Bldg paper felt  (BP01),                !- Name
  Smooth,                                 !- Roughness
  0.01057;                                !- Thermal Resistance {m2-K/W}

OS:Material,
  {0f1fe4e9-0d3f-4c35-a35a-e70af38d5770}, !- Handle
  Wood Sft 3/4 in  (WD01),                !- Name
  MediumRough,                            !- Roughness
  0.019049,                               !- Thickness {m}
  0.11544,                                !- Conductivity {W/m-K}
  512.64,                                 !- Density {kg/m3}
  1381.644;                               !- Specific Heat {J/kg-K}

OS:Material:NoMass,
  {e2debc85-a0d0-481d-9ad2-a678d70ee2a2}, !- Handle
  Minwool batt R13 w/ 2x4 frame,          !- Name
  Smooth,                                 !- Roughness
  1.6255;                                 !- Thermal Resistance {m2-K/W}

OS:Material,
  {060d32e3-40ee-4858-bf09-5b83dac1aa90}, !- Handle
  GypBd 5/8 in  (GP02),                   !- Name
  MediumRough,                            !- Roughness
  0.015879,                               !- Thickness {m}
  0.160266,                               !- Conductivity {W/m-K}
  801,                                    !- Density {kg/m3}
  837.36,                                 !- Specific Heat {J/kg-K}
  ,                                       !- Thermal Absorptance
  0.7;                                    !- Solar Absorptance

OS:Material:NoMass,
  {ad8cc0c6-d62e-4277-8509-0811c635f35e}, !- Handle
  Air space,                              !- Name
  Smooth,                                 !- Roughness
  0.10919;                                !- Thermal Resistance {m2-K/W}

OS:Material,
  {88f6bb8e-5c68-417c-987f-a1fe7299223e}, !- Handle
  Blt-Up roof 3/8 in  (BR01),             !- Name
  MediumRough,                            !- Roughness
  0.00954,                                !- Thickness {m}
  0.162516,                               !- Conductivity {W/m-K}
  1121.4,                                 !- Density {kg/m3}
  1465.38,                                !- Specific Heat {J/kg-K}
  ,                                       !- Thermal Absorptance
  0.3;                                    !- Solar Absorptance

OS:Material,
  {9e2511b2-63e2-4147-8667-247e039987d8}, !- Handle
  MinBd 3 in R-10.4  (IN24),              !- Name
  MediumRough,                            !- Roughness
  0.076196,                               !- Thickness {m}
  0.041538,                               !- Conductivity {W/m-K}
  240.3,                                  !- Density {kg/m3}
  711.756;                                !- Specific Heat {J/kg-K}

OS:Material:NoMass,
  {88c51173-a66c-4513-877a-599bd06379d5}, !- Handle
  UG surface fictitious insulation,       !- Name
  Smooth,                                 !- Roughness
  5.28331;                                !- Thermal Resistance {m2-K/W}

OS:Material,
  {c6e53ff1-6a0c-4e8b-a6f7-f32ae2a1829a}, !- Handle
  Soil 8 in,                              !- Name
  MediumRough,                            !- Roughness
  0.204206,                               !- Thickness {m}
  1.730735,                               !- Conductivity {W/m-K}
  1842.3,                                 !- Density {kg/m3}
  837.36;                                 !- Specific Heat {J/kg-K}

OS:Material,
  {c6ef5914-220c-46ac-9462-26a02d792a8d}, !- Handle
  Conc heavyweight 140lb 8 in  (CC05),    !- Name
  MediumRough,                            !- Roughness
  0.2032,                                 !- Thickness {m}
  1.311205,                               !- Conductivity {W/m-K}
  2242.8,                                 !- Density {kg/m3}
  837.36;                                 !- Specific Heat {J/kg-K}

OS:Material:NoMass,
  {93911e08-d2c5-41c2-9328-8987ab574e7d}, !- Handle
  Carpet fiber pad  (CP01),               !- Name
  Smooth,                                 !- Roughness
  0.36631;                                !- Thermal Resistance {m2-K/W}

OS:Construction,
  {f4db85d7-8b5f-475b-9cb6-a5b00b0f1c81}, !- Handle
  R-13 wood frame wall,                   !- Name
  ,                                       !- Surface Rendering Name
  {018fd241-16e8-4d0e-93fe-c15177bb90a6}, !- Layer 1
  {7d3211a1-18b7-49b5-8539-a67ce630c34e}, !- Layer 2
  {0f1fe4e9-0d3f-4c35-a35a-e70af38d5770}, !- Layer 3
  {e2debc85-a0d0-481d-9ad2-a678d70ee2a2}, !- Layer 4
  {060d32e3-40ee-4858-bf09-5b83dac1aa90}; !- Layer 5

OS:Construction,
  {516f76bf-3839-4f02-b2d9-8fe82ac3e5dc}, !- Handle
  R-0 metal frame wall,                   !- Name
  ,                                       !- Surface Rendering Name
  {060d32e3-40ee-4858-bf09-5b83dac1aa90}, !- Layer 1
  {ad8cc0c6-d62e-4277-8509-0811c635f35e}, !- Layer 2
  {060d32e3-40ee-4858-bf09-5b83dac1aa90}; !- Layer 3

OS:Construction,
  {51722952-053f-45df-a3e4-f27b3247fd7a}, !- Handle
  R-20 over roof deck - cool roof,        !- Name
  ,                                       !- Surface Rendering Name
  {88f6bb8e-5c68-417c-987f-a1fe7299223e}, !- Layer 1
  {7d3211a1-18b7-49b5-8539-a67ce630c34e}, !- Layer 2
  {9e2511b2-63e2-4147-8667-247e039987d8}, !- Layer 3
  {9e2511b2-63e2-4147-8667-247e039987d8}, !- Layer 4
  {0f1fe4e9-0d3f-4c35-a35a-e70af38d5770}; !- Layer 5

OS:Construction,
  {67abb1cf-6dca-4fda-8682-f48296b4d572}, !- Handle
  Slab edge uninsulated,                  !- Name
  ,                                       !- Surface Rendering Name
  {88c51173-a66c-4513-877a-599bd06379d5}, !- Layer 1
  {c6e53ff1-6a0c-4e8b-a6f7-f32ae2a1829a}, !- Layer 2
  {c6ef5914-220c-46ac-9462-26a02d792a8d}, !- Layer 3
  {93911e08-d2c5-41c2-9328-8987ab574e7d}; !- Layer 4

OS:ScheduleTypeLimits,
  {b92a6fc1-1669-4434-9361-686f3ed65c03}, !- Handle
  Fraction,                               !- Name
  ,                                       !- Lower Limit Value
  ,                                       !- Upper Limit Value
  ,                                       !- Numeric Type
  Dimensionless;                          !- Unit Type

OS:YearDescription,
  {10c79dc9-9dac-4854-8873-2e4fdfd6449b}, !- Handle
  1997,                                   !- Calendar Year
  ,                                       !- Day of Week for Start Day
  ;                                       !- Is Leap Year

OS:ThermalZone,
  {cc69cefc-e6a5-4005-9ba1-d74c9c7cb0e5}, !- Handle
  VAV Box Hot Water-1,                    !- Name
  ,                                       !- Multiplier
  ,                                       !- Ceiling Height {m}
  536.058577284572,                       !- Volume {m3}
  ,                                       !- Floor Area {m2}
  ,                                       !- Zone Inside Convection Algorithm
  ,                                       !- Zone Outside Convection Algorithm
  ,                                       !- Zone Conditioning Equipment List Name
  {e222240e-c151-473c-b098-1a62f2e15067}, !- Zone Air Inlet Port List
  {0ff7faab-993a-471e-a387-cb630a3be545}, !- Zone Air Exhaust Port List
  {d79ad78b-69a2-400b-bee4-0115c6847beb}, !- Zone Air Node Name
  {89d40781-ccdf-4d52-b71d-9f0ba8273bca}, !- Zone Return Air Port List
  ,                                       !- Primary Daylighting Control Name
  ,                                       !- Fraction of Zone Controlled by Primary Daylighting Control
  ,                                       !- Secondary Daylighting Control Name
  ,                                       !- Fraction of Zone Controlled by Secondary Daylighting Control
  ,                                       !- Illuminance Map Name
  ,                                       !- Group Rendering Name
  {6da0afab-230e-4b2d-bac6-864d12824807}, !- Thermostat Name
  No;                                     !- Use Ideal Air Loads

OS:Node,
  {943457a9-60c0-47b1-aeeb-288e9c7ed914}, !- Handle
  {f273b22a-28fe-419b-9227-199f703bae67}, !- Name
  {d79ad78b-69a2-400b-bee4-0115c6847beb}, !- Inlet Port
  ;                                       !- Outlet Port

OS:Connection,
  {d79ad78b-69a2-400b-bee4-0115c6847beb}, !- Handle
  {b713bf79-76e2-4f9c-883d-ff27135a6715}, !- Name
  {cc69cefc-e6a5-4005-9ba1-d74c9c7cb0e5}, !- Source Object
  11,                                     !- Outlet Port
  {943457a9-60c0-47b1-aeeb-288e9c7ed914}, !- Target Object
  2;                                      !- Inlet Port

OS:PortList,
  {e222240e-c151-473c-b098-1a62f2e15067}, !- Handle
  {26b2c9c4-2525-4c33-94cd-9bee941b4890}, !- Name
  {cc69cefc-e6a5-4005-9ba1-d74c9c7cb0e5}, !- HVAC Component
  {5bb2e773-77c9-435b-a3c0-5febe8b1d357}; !- Port 1

OS:PortList,
  {0ff7faab-993a-471e-a387-cb630a3be545}, !- Handle
  {3c88c380-4c3f-4779-8012-0b94b0221214}, !- Name
  {cc69cefc-e6a5-4005-9ba1-d74c9c7cb0e5}; !- HVAC Component

OS:PortList,
  {89d40781-ccdf-4d52-b71d-9f0ba8273bca}, !- Handle
  {e2740a52-994f-4b85-91ef-7b2033439e13}, !- Name
  {cc69cefc-e6a5-4005-9ba1-d74c9c7cb0e5}, !- HVAC Component
  {dfef06d6-b18e-4a46-99ca-205041e8f51e}; !- Port 1

OS:Sizing:Zone,
  {0427593c-42d2-4277-8b32-1be3ed786463}, !- Handle
  {cc69cefc-e6a5-4005-9ba1-d74c9c7cb0e5}, !- Zone or ZoneList Name
  SupplyAirTemperature,                   !- Zone Cooling Design Supply Air Temperature Input Method
  12.777778,                              !- Zone Cooling Design Supply Air Temperature {C}
  11.11,                                  !- Zone Cooling Design Supply Air Temperature Difference {deltaC}
  SupplyAirTemperature,                   !- Zone Heating Design Supply Air Temperature Input Method
  40,                                     !- Zone Heating Design Supply Air Temperature {C}
  11.11,                                  !- Zone Heating Design Supply Air Temperature Difference {deltaC}
  0.0085,                                 !- Zone Cooling Design Supply Air Humidity Ratio {kg-H2O/kg-air}
  0.005,                                  !- Zone Heating Design Supply Air Humidity Ratio {kg-H2O/kg-air}
  ,                                       !- Zone Heating Sizing Factor
  ,                                       !- Zone Cooling Sizing Factor
  DesignDay,                              !- Cooling Design Air Flow Method
  ,                                       !- Cooling Design Air Flow Rate {m3/s}
  ,                                       !- Cooling Minimum Air Flow per Zone Floor Area {m3/s-m2}
  ,                                       !- Cooling Minimum Air Flow {m3/s}
  ,                                       !- Cooling Minimum Air Flow Fraction
  DesignDay,                              !- Heating Design Air Flow Method
  ,                                       !- Heating Design Air Flow Rate {m3/s}
  ,                                       !- Heating Maximum Air Flow per Zone Floor Area {m3/s-m2}
  ,                                       !- Heating Maximum Air Flow {m3/s}
  ,                                       !- Heating Maximum Air Flow Fraction
  ,                                       !- Design Zone Air Distribution Effectiveness in Cooling Mode
  ,                                       !- Design Zone Air Distribution Effectiveness in Heating Mode
  No,                                     !- Account for Dedicated Outdoor Air System
  NeutralSupplyAir,                       !- Dedicated Outdoor Air System Control Strategy
  autosize,                               !- Dedicated Outdoor Air Low Setpoint Temperature for Design {C}
  autosize;                               !- Dedicated Outdoor Air High Setpoint Temperature for Design {C}

OS:ZoneHVAC:EquipmentList,
  {6a3c07c1-5fb6-4d1e-8631-e3aebd6e027d}, !- Handle
  {23c6af3a-1a6b-4e25-a4dc-a68ab9179754}, !- Name
  {cc69cefc-e6a5-4005-9ba1-d74c9c7cb0e5}, !- Thermal Zone
  ,                                       !- Load Distribution Scheme
  {dc9c8295-3416-4e67-beec-9e942fcda6fc}, !- Zone Equipment 1
  1,                                      !- Zone Equipment Cooling Sequence 1
  1,                                      !- Zone Equipment Heating or No-Load Sequence 1
  ,                                       !- Zone Equipment Sequential Cooling Fraction 1
  ;                                       !- Zone Equipment Sequential Heating Fraction 1

OS:AdditionalProperties,
  {2d7f528c-7096-4206-8501-d12a38f43dec}, !- Handle
  {cc69cefc-e6a5-4005-9ba1-d74c9c7cb0e5}, !- Object Name
  CADObjectId,                            !- Feature Name 1
  String,                                 !- Feature Data Type 1
  280991,                                 !- Feature Value 1
  id,                                     !- Feature Name 2
  String,                                 !- Feature Data Type 2
  aim0968;                                !- Feature Value 2

OS:ThermalZone,
  {f1bf4d08-798c-47aa-828e-6346c5ba1fcb}, !- Handle
  VAV Box Electric-1,                     !- Name
  ,                                       !- Multiplier
  ,                                       !- Ceiling Height {m}
  487.420145735823,                       !- Volume {m3}
  ,                                       !- Floor Area {m2}
  ,                                       !- Zone Inside Convection Algorithm
  ,                                       !- Zone Outside Convection Algorithm
  ,                                       !- Zone Conditioning Equipment List Name
  {b58a39a3-703e-43e4-95d3-dad503f342b4}, !- Zone Air Inlet Port List
  {d21249b6-6c7b-4161-aec2-538a55e4afe2}, !- Zone Air Exhaust Port List
  {08135712-17aa-44aa-9e7f-265d40a5ab6e}, !- Zone Air Node Name
  {b7cdde3e-7a76-4b21-94ad-1829fc32a857}, !- Zone Return Air Port List
  ,                                       !- Primary Daylighting Control Name
  ,                                       !- Fraction of Zone Controlled by Primary Daylighting Control
  ,                                       !- Secondary Daylighting Control Name
  ,                                       !- Fraction of Zone Controlled by Secondary Daylighting Control
  ,                                       !- Illuminance Map Name
  ,                                       !- Group Rendering Name
  {61788fe4-63ff-4b90-ac93-b86e7866b436}, !- Thermostat Name
  No;                                     !- Use Ideal Air Loads

OS:Node,
  {3da1df3b-d752-48c7-8a07-8e7636733426}, !- Handle
  {6336eb52-d5ba-41cf-839c-6a9cb2355e6e}, !- Name
  {08135712-17aa-44aa-9e7f-265d40a5ab6e}, !- Inlet Port
  ;                                       !- Outlet Port

OS:Connection,
  {08135712-17aa-44aa-9e7f-265d40a5ab6e}, !- Handle
  {9a5eee38-a2b4-4be4-80a2-f14a47c6a280}, !- Name
  {f1bf4d08-798c-47aa-828e-6346c5ba1fcb}, !- Source Object
  11,                                     !- Outlet Port
  {3da1df3b-d752-48c7-8a07-8e7636733426}, !- Target Object
  2;                                      !- Inlet Port

OS:PortList,
  {b58a39a3-703e-43e4-95d3-dad503f342b4}, !- Handle
  {0c948b77-e53a-4323-852d-850d0a4877b0}, !- Name
  {f1bf4d08-798c-47aa-828e-6346c5ba1fcb}, !- HVAC Component
  {facf1a89-124c-4d1c-be50-02b9ee38763e}; !- Port 1

OS:PortList,
  {d21249b6-6c7b-4161-aec2-538a55e4afe2}, !- Handle
  {be01f9e5-a289-4ecb-a01e-6ca1442bc352}, !- Name
  {f1bf4d08-798c-47aa-828e-6346c5ba1fcb}; !- HVAC Component

OS:PortList,
  {b7cdde3e-7a76-4b21-94ad-1829fc32a857}, !- Handle
  {1fdf4fad-8c73-4275-8f6b-dec1ac1fbdcb}, !- Name
  {f1bf4d08-798c-47aa-828e-6346c5ba1fcb}, !- HVAC Component
  {00034576-d7a6-408d-b569-99513c49e775}; !- Port 1

OS:Sizing:Zone,
  {9662a621-a88e-4be4-bd13-a6d01b150a1f}, !- Handle
  {f1bf4d08-798c-47aa-828e-6346c5ba1fcb}, !- Zone or ZoneList Name
  SupplyAirTemperature,                   !- Zone Cooling Design Supply Air Temperature Input Method
  12.777778,                              !- Zone Cooling Design Supply Air Temperature {C}
  11.11,                                  !- Zone Cooling Design Supply Air Temperature Difference {deltaC}
  SupplyAirTemperature,                   !- Zone Heating Design Supply Air Temperature Input Method
  40,                                     !- Zone Heating Design Supply Air Temperature {C}
  11.11,                                  !- Zone Heating Design Supply Air Temperature Difference {deltaC}
  0.0085,                                 !- Zone Cooling Design Supply Air Humidity Ratio {kg-H2O/kg-air}
  0.005,                                  !- Zone Heating Design Supply Air Humidity Ratio {kg-H2O/kg-air}
  ,                                       !- Zone Heating Sizing Factor
  ,                                       !- Zone Cooling Sizing Factor
  DesignDay,                              !- Cooling Design Air Flow Method
  ,                                       !- Cooling Design Air Flow Rate {m3/s}
  ,                                       !- Cooling Minimum Air Flow per Zone Floor Area {m3/s-m2}
  ,                                       !- Cooling Minimum Air Flow {m3/s}
  ,                                       !- Cooling Minimum Air Flow Fraction
  DesignDay,                              !- Heating Design Air Flow Method
  ,                                       !- Heating Design Air Flow Rate {m3/s}
  ,                                       !- Heating Maximum Air Flow per Zone Floor Area {m3/s-m2}
  ,                                       !- Heating Maximum Air Flow {m3/s}
  ,                                       !- Heating Maximum Air Flow Fraction
  ,                                       !- Design Zone Air Distribution Effectiveness in Cooling Mode
  ,                                       !- Design Zone Air Distribution Effectiveness in Heating Mode
  No,                                     !- Account for Dedicated Outdoor Air System
  NeutralSupplyAir,                       !- Dedicated Outdoor Air System Control Strategy
  autosize,                               !- Dedicated Outdoor Air Low Setpoint Temperature for Design {C}
  autosize;                               !- Dedicated Outdoor Air High Setpoint Temperature for Design {C}

OS:ZoneHVAC:EquipmentList,
  {5545bb0c-6951-415d-9874-df9a28339406}, !- Handle
  {3f969a70-cd11-4aa6-bf46-183c728a45a8}, !- Name
  {f1bf4d08-798c-47aa-828e-6346c5ba1fcb}, !- Thermal Zone
  ,                                       !- Load Distribution Scheme
  {7260256b-e2a2-4c8a-a613-9b7177f5e2a9}, !- Zone Equipment 1
  1,                                      !- Zone Equipment Cooling Sequence 1
  1,                                      !- Zone Equipment Heating or No-Load Sequence 1
  ,                                       !- Zone Equipment Sequential Cooling Fraction 1
  ;                                       !- Zone Equipment Sequential Heating Fraction 1

OS:AdditionalProperties,
  {a73be7cb-5991-42ac-9175-23dc88c818d9}, !- Handle
  {f1bf4d08-798c-47aa-828e-6346c5ba1fcb}, !- Object Name
  CADObjectId,                            !- Feature Name 1
  String,                                 !- Feature Data Type 1
  280992,                                 !- Feature Value 1
  id,                                     !- Feature Name 2
  String,                                 !- Feature Data Type 2
  aim0973;                                !- Feature Value 2

OS:ThermalZone,
  {f7e2e208-dd49-4977-82bc-9cfd65abc23e}, !- Handle
  VAV Box Furnace-1,                      !- Name
  ,                                       !- Multiplier
  ,                                       !- Ceiling Height {m}
  448.588404498816,                       !- Volume {m3}
  ,                                       !- Floor Area {m2}
  ,                                       !- Zone Inside Convection Algorithm
  ,                                       !- Zone Outside Convection Algorithm
  ,                                       !- Zone Conditioning Equipment List Name
  {4e623955-69c3-464a-a99b-11e3e1d24c52}, !- Zone Air Inlet Port List
  {2196cdd3-6ebe-4f32-91ae-35a8207c17aa}, !- Zone Air Exhaust Port List
  {2aa47ec8-594e-4207-8e9c-6bd4946e4ac0}, !- Zone Air Node Name
  {10787fe2-7a06-48bd-b759-225c988c803b}, !- Zone Return Air Port List
  ,                                       !- Primary Daylighting Control Name
  ,                                       !- Fraction of Zone Controlled by Primary Daylighting Control
  ,                                       !- Secondary Daylighting Control Name
  ,                                       !- Fraction of Zone Controlled by Secondary Daylighting Control
  ,                                       !- Illuminance Map Name
  ,                                       !- Group Rendering Name
  {047fcea3-647f-4e8d-bb36-f57863f8d64d}, !- Thermostat Name
  No;                                     !- Use Ideal Air Loads

OS:Node,
  {ea3408df-0f7e-4743-ba34-99dd309b633b}, !- Handle
  {791b1654-49d4-43e8-b197-11ebe0c5528e}, !- Name
  {2aa47ec8-594e-4207-8e9c-6bd4946e4ac0}, !- Inlet Port
  ;                                       !- Outlet Port

OS:Connection,
  {2aa47ec8-594e-4207-8e9c-6bd4946e4ac0}, !- Handle
  {2cb611a1-8376-42ff-a790-8e679093f89c}, !- Name
  {f7e2e208-dd49-4977-82bc-9cfd65abc23e}, !- Source Object
  11,                                     !- Outlet Port
  {ea3408df-0f7e-4743-ba34-99dd309b633b}, !- Target Object
  2;                                      !- Inlet Port

OS:PortList,
  {4e623955-69c3-464a-a99b-11e3e1d24c52}, !- Handle
  {41ca0d01-4b13-478e-b4ab-2031555c816e}, !- Name
  {f7e2e208-dd49-4977-82bc-9cfd65abc23e}, !- HVAC Component
  {6f6b3342-8b2f-491f-931c-a10cb207e1a1}; !- Port 1

OS:PortList,
  {2196cdd3-6ebe-4f32-91ae-35a8207c17aa}, !- Handle
  {f95e484d-a550-43c7-8c8f-e433f2ede25a}, !- Name
  {f7e2e208-dd49-4977-82bc-9cfd65abc23e}; !- HVAC Component

OS:PortList,
  {10787fe2-7a06-48bd-b759-225c988c803b}, !- Handle
  {12067fc5-a69a-43a5-834a-ad81c41f126d}, !- Name
  {f7e2e208-dd49-4977-82bc-9cfd65abc23e}, !- HVAC Component
  {e6ef7757-eaff-4db4-9a2e-bb19f243d5cb}; !- Port 1

OS:Sizing:Zone,
  {17ee786e-1e0c-45fe-a9c5-e7bd108ac231}, !- Handle
  {f7e2e208-dd49-4977-82bc-9cfd65abc23e}, !- Zone or ZoneList Name
  SupplyAirTemperature,                   !- Zone Cooling Design Supply Air Temperature Input Method
  12.777778,                              !- Zone Cooling Design Supply Air Temperature {C}
  11.11,                                  !- Zone Cooling Design Supply Air Temperature Difference {deltaC}
  SupplyAirTemperature,                   !- Zone Heating Design Supply Air Temperature Input Method
  40,                                     !- Zone Heating Design Supply Air Temperature {C}
  11.11,                                  !- Zone Heating Design Supply Air Temperature Difference {deltaC}
  0.0085,                                 !- Zone Cooling Design Supply Air Humidity Ratio {kg-H2O/kg-air}
  0.005,                                  !- Zone Heating Design Supply Air Humidity Ratio {kg-H2O/kg-air}
  ,                                       !- Zone Heating Sizing Factor
  ,                                       !- Zone Cooling Sizing Factor
  DesignDay,                              !- Cooling Design Air Flow Method
  ,                                       !- Cooling Design Air Flow Rate {m3/s}
  ,                                       !- Cooling Minimum Air Flow per Zone Floor Area {m3/s-m2}
  ,                                       !- Cooling Minimum Air Flow {m3/s}
  ,                                       !- Cooling Minimum Air Flow Fraction
  DesignDay,                              !- Heating Design Air Flow Method
  ,                                       !- Heating Design Air Flow Rate {m3/s}
  ,                                       !- Heating Maximum Air Flow per Zone Floor Area {m3/s-m2}
  ,                                       !- Heating Maximum Air Flow {m3/s}
  ,                                       !- Heating Maximum Air Flow Fraction
  ,                                       !- Design Zone Air Distribution Effectiveness in Cooling Mode
  ,                                       !- Design Zone Air Distribution Effectiveness in Heating Mode
  No,                                     !- Account for Dedicated Outdoor Air System
  NeutralSupplyAir,                       !- Dedicated Outdoor Air System Control Strategy
  autosize,                               !- Dedicated Outdoor Air Low Setpoint Temperature for Design {C}
  autosize;                               !- Dedicated Outdoor Air High Setpoint Temperature for Design {C}

OS:ZoneHVAC:EquipmentList,
  {915a943f-f25f-45e1-9f4f-d3bd0e74bb63}, !- Handle
  {0229c563-4ae1-4638-b19c-705c074a5529}, !- Name
  {f7e2e208-dd49-4977-82bc-9cfd65abc23e}, !- Thermal Zone
  ,                                       !- Load Distribution Scheme
  {db2b302a-4ae3-4c26-9689-85a6e473288b}, !- Zone Equipment 1
  1,                                      !- Zone Equipment Cooling Sequence 1
  1,                                      !- Zone Equipment Heating or No-Load Sequence 1
  ,                                       !- Zone Equipment Sequential Cooling Fraction 1
  ;                                       !- Zone Equipment Sequential Heating Fraction 1

OS:AdditionalProperties,
  {8f7565c8-5ba1-4d51-98a3-e6f1058f6570}, !- Handle
  {f7e2e208-dd49-4977-82bc-9cfd65abc23e}, !- Object Name
  CADObjectId,                            !- Feature Name 1
  String,                                 !- Feature Data Type 1
  280993,                                 !- Feature Value 1
  id,                                     !- Feature Name 2
  String,                                 !- Feature Data Type 2
  aim0978;                                !- Feature Value 2

OS:ThermalZone,
  {56fbe5f7-77d1-4127-aa08-ecc9d332acc8}, !- Handle
  VAV Box No Reheat-1,                    !- Name
  ,                                       !- Multiplier
  ,                                       !- Ceiling Height {m}
  493.914048164767,                       !- Volume {m3}
  ,                                       !- Floor Area {m2}
  ,                                       !- Zone Inside Convection Algorithm
  ,                                       !- Zone Outside Convection Algorithm
  ,                                       !- Zone Conditioning Equipment List Name
  {65834c45-09d0-4ba8-9dd7-26fbca594ad2}, !- Zone Air Inlet Port List
  {abb894e5-5cff-453d-8921-bc6746e01dd1}, !- Zone Air Exhaust Port List
  {a0c48054-cc4c-49ae-9771-81d0e7aa9d3e}, !- Zone Air Node Name
  {eb9b8252-e36e-43a0-9fb6-3afcc2d0241c}, !- Zone Return Air Port List
  ,                                       !- Primary Daylighting Control Name
  ,                                       !- Fraction of Zone Controlled by Primary Daylighting Control
  ,                                       !- Secondary Daylighting Control Name
  ,                                       !- Fraction of Zone Controlled by Secondary Daylighting Control
  ,                                       !- Illuminance Map Name
  ,                                       !- Group Rendering Name
  {95ca0d90-3864-4e9c-b27f-b91c77657fb2}, !- Thermostat Name
  No;                                     !- Use Ideal Air Loads

OS:Node,
  {3f2dca45-cba7-43bd-b658-1c93e7052144}, !- Handle
  {96f2dbc0-afc5-4f4c-b231-903b06b3cc06}, !- Name
  {a0c48054-cc4c-49ae-9771-81d0e7aa9d3e}, !- Inlet Port
  ;                                       !- Outlet Port

OS:Connection,
  {a0c48054-cc4c-49ae-9771-81d0e7aa9d3e}, !- Handle
  {13ab6b93-5801-448c-b895-785031644081}, !- Name
  {56fbe5f7-77d1-4127-aa08-ecc9d332acc8}, !- Source Object
  11,                                     !- Outlet Port
  {3f2dca45-cba7-43bd-b658-1c93e7052144}, !- Target Object
  2;                                      !- Inlet Port

OS:PortList,
  {65834c45-09d0-4ba8-9dd7-26fbca594ad2}, !- Handle
  {5d53b426-ca6b-4a40-826d-c0e40e4e3ace}, !- Name
  {56fbe5f7-77d1-4127-aa08-ecc9d332acc8}, !- HVAC Component
  {b33f5ca2-ae3a-4fa5-bbc8-0a992a6bfdd2}, !- Port 1
  {897dd7c5-da74-4452-aca8-8ea11d7968e0}; !- Port 2

OS:PortList,
  {abb894e5-5cff-453d-8921-bc6746e01dd1}, !- Handle
  {7c8e9523-781c-4c28-948f-67b01a7cf4b7}, !- Name
  {56fbe5f7-77d1-4127-aa08-ecc9d332acc8}, !- HVAC Component
  {f38fd50a-86ca-4c15-b507-9c9a349295f7}; !- Port 1

OS:PortList,
  {eb9b8252-e36e-43a0-9fb6-3afcc2d0241c}, !- Handle
  {0c4d817e-6e2b-458c-b69e-c014b938eb5b}, !- Name
  {56fbe5f7-77d1-4127-aa08-ecc9d332acc8}, !- HVAC Component
  {1233b99e-e639-4673-ba49-974dd5c7128d}; !- Port 1

OS:Sizing:Zone,
  {54e7720c-4bf1-42f4-8737-d3e4b31bfcea}, !- Handle
  {56fbe5f7-77d1-4127-aa08-ecc9d332acc8}, !- Zone or ZoneList Name
  SupplyAirTemperature,                   !- Zone Cooling Design Supply Air Temperature Input Method
  12.777778,                              !- Zone Cooling Design Supply Air Temperature {C}
  11.11,                                  !- Zone Cooling Design Supply Air Temperature Difference {deltaC}
  SupplyAirTemperature,                   !- Zone Heating Design Supply Air Temperature Input Method
  40,                                     !- Zone Heating Design Supply Air Temperature {C}
  11.11,                                  !- Zone Heating Design Supply Air Temperature Difference {deltaC}
  0.0085,                                 !- Zone Cooling Design Supply Air Humidity Ratio {kg-H2O/kg-air}
  0.005,                                  !- Zone Heating Design Supply Air Humidity Ratio {kg-H2O/kg-air}